@<TRIPOS>MOLECULE
MOL
  219   219     1     0     0
SMALL
bcc


@<TRIPOS>ATOM
      1 N            5.2140   -12.7390    -7.1240 n         11 MOL      -0.559233
      2 N1           6.0400   -10.2820    -1.1180 n         11 MOL      -0.559233
      3 N2           0.9900    -8.6310    -4.4680 n         11 MOL      -0.559233
      4 C            2.7610   -10.2750    -4.6200 ca        11 MOL      -0.159267
      5 C1           3.1510   -10.1270    -3.2810 ca        11 MOL      -0.037000
      6 C2           4.3610   -10.6480    -2.8140 ca        11 MOL      -0.159267
      7 C3           5.1810   -11.3540    -3.7030 ca        11 MOL      -0.037000
      8 C4           4.8120   -11.5460    -5.0420 ca        11 MOL      -0.159267
      9 C5           3.5960   -10.9950    -5.4860 ca        11 MOL      -0.037000
     10 C6           5.7340   -12.3150    -5.9650 c         11 MOL       0.669367
     11 C7           4.7400   -10.4760    -1.3670 c         11 MOL       0.669367
     12 C8           6.6330   -10.1220     0.2070 c3        11 MOL       0.084000
     13 C9           5.9450   -13.4250    -8.1720 c3        11 MOL       0.084000
     14 C10         -0.2430    -8.0340    -4.8650 c3        11 MOL       0.084000
     15 C11          1.4570    -9.7000    -5.1250 c         11 MOL       0.669367
     16 C12          6.8370   -14.5980    -7.7430 c3        11 MOL      -0.105067
     17 C13          7.4160   -15.1140    -9.0620 c3        11 MOL      -0.077400
     18 C14          8.3410   -16.3080    -8.8830 c3        11 MOL      -0.078400
     19 C15          8.7660   -16.7080   -10.3030 c3        11 MOL      -0.079400
     20 C16          9.6980   -17.9180   -10.3130 c3        11 MOL      -0.078733
     21 C17          9.9970   -18.2260   -11.7860 c3        11 MOL      -0.079400
     22 C18         10.9190   -19.4380   -11.9160 c3        11 MOL      -0.079400
     23 C19         11.1390   -19.7030   -13.4150 c3        11 MOL      -0.078400
     24 C20         12.0520   -20.9160   -13.6110 c3        11 MOL      -0.078400
     25 C21         12.2250   -21.1620   -15.1170 c3        11 MOL      -0.084400
     26 C22         13.1370   -22.3760   -15.3330 c3        11 MOL       0.133400
     27 C23         14.1190   -23.7000   -16.9240 c3        11 MOL       0.128400
     28 C24         14.2510   -23.9580   -18.3700 c3        11 MOL       0.130400
     29 C25         15.3750   -25.4620   -19.5870 c3        11 MOL       0.130400
     30 C26         16.2640   -26.5230   -19.2790 c3        11 MOL       0.129400
     31 C27         17.4480   -28.0090   -20.3620 c3        11 MOL       0.130400
     32 C28         17.6670   -28.3760   -21.7230 c3        11 MOL       0.128400
     33 C29         18.8500   -29.8820   -22.8550 c3        11 MOL       0.094400
     34 C30         19.7890   -30.9760   -22.5340 c3        11 MOL       0.125400
     35 C31          5.9970    -9.0760     1.1310 c3        11 MOL      -0.105067
     36 C32          6.8170    -9.1880     2.4170 c3        11 MOL      -0.077400
     37 C33          6.3750    -8.2210     3.5070 c3        11 MOL      -0.078400
     38 C34          7.3340    -8.4840     4.6770 c3        11 MOL      -0.079400
     39 C35          7.0660    -7.5910     5.8880 c3        11 MOL      -0.078733
     40 C36          8.1190    -7.9810     6.9350 c3        11 MOL      -0.079400
     41 C37          7.9880    -7.1570     8.2160 c3        11 MOL      -0.079400
     42 C38          9.1000    -7.6360     9.1670 c3        11 MOL      -0.078400
     43 C39          9.0730    -6.8690    10.4950 c3        11 MOL      -0.078400
     44 C40         10.2190    -7.4080    11.3680 c3        11 MOL      -0.084400
     45 C41         10.2600    -6.6790    12.7210 c3        11 MOL       0.133400
     46 C42         11.4150    -6.5740    14.7190 c3        11 MOL       0.128400
     47 C43         12.5460    -7.1560    15.4660 c3        11 MOL       0.130400
     48 C44         13.4960    -6.8590    17.4510 c3        11 MOL       0.130400
     49 C45         13.2970    -6.0300    18.5860 c3        11 MOL       0.129400
     50 C46         14.2580    -5.7590    20.5440 c3        11 MOL       0.130400
     51 C47         15.3640    -6.3410    21.2350 c3        11 MOL       0.128400
     52 C48         16.4110    -6.1200    23.1820 c3        11 MOL       0.094400
     53 C49         16.2880    -5.2780    24.3880 c3        11 MOL       0.125400
     54 C50         -0.7400    -7.0600    -3.7940 c3        11 MOL      -0.105067
     55 C51         -2.0620    -6.4520    -4.2670 c3        11 MOL      -0.077400
     56 C52         -2.5840    -5.4780    -3.2070 c3        11 MOL      -0.078400
     57 C53         -3.9090    -4.8820    -3.6930 c3        11 MOL      -0.079400
     58 C54         -4.4530    -3.9090    -2.6430 c3        11 MOL      -0.078733
     59 C55         -5.7770    -3.3330    -3.1520 c3        11 MOL      -0.079400
     60 C56         -6.3460    -2.3570    -2.1190 c3        11 MOL      -0.079400
     61 C57         -7.6710    -1.7970    -2.6550 c3        11 MOL      -0.078400
     62 C58         -8.2730    -0.8140    -1.6450 c3        11 MOL      -0.078400
     63 C59         -9.5920    -0.2780    -2.2160 c3        11 MOL      -0.084400
     64 C60        -10.2270     0.7140    -1.2300 c3        11 MOL       0.133400
     65 C61        -12.0480     2.1000    -0.9230 c3        11 MOL       0.128400
     66 C62        -13.2970     2.5660    -1.5520 c3        11 MOL       0.130400
     67 C63        -14.9500     3.9600    -1.0760 c3        11 MOL       0.130400
     68 C64        -15.3340     4.8370    -0.0260 c3        11 MOL       0.129400
     69 C65        -17.0270     6.2050     0.3300 c3        11 MOL       0.130400
     70 C66        -18.1970     6.5800    -0.4020 c3        11 MOL       0.128400
     71 C67        -19.9630     7.9020    -0.1830 c3        11 MOL       0.094400
     72 C68        -20.5090     8.8350     0.8220 c3        11 MOL       0.125400
     73 O            6.8980   -12.5610    -5.6420 o         11 MOL      -0.606100
     74 O1           3.8840   -10.5170    -0.4810 o         11 MOL      -0.606100
     75 O2           0.8700   -10.1920    -6.0890 o         11 MOL      -0.606100
     76 O3          13.2880   -22.6190   -16.7390 os        11 MOL      -0.427600
     77 O4          15.0970   -25.0310   -18.3760 os        11 MOL      -0.430600
     78 O5          16.5860   -27.0000   -20.4720 os        11 MOL      -0.430600
     79 O6          18.5240   -29.3730   -21.6190 os        11 MOL      -0.425600
     80 O7          20.1830   -31.5790   -23.7170 oh        11 MOL      -0.592800
     81 O8          11.3450    -7.2110    13.4960 os        11 MOL      -0.427600
     82 O9          12.5290    -6.4620    16.6480 os        11 MOL      -0.430600
     83 O10         14.2710    -6.4300    19.3950 os        11 MOL      -0.430600
     84 O11         15.3770    -5.6900    22.3810 os        11 MOL      -0.425600
     85 O12         17.3000    -5.6230    25.2710 oh        11 MOL      -0.592800
     86 O13        -11.4540     1.2000    -1.7890 os        11 MOL      -0.427600
     87 O14        -13.8160     3.4490    -0.6360 os        11 MOL      -0.430600
     88 O15        -16.4700     5.3320    -0.5040 os        11 MOL      -0.430600
     89 O16        -18.7920     7.4510     0.3880 os        11 MOL      -0.425600
     90 O17        -21.7080     9.3440     0.3430 oh        11 MOL      -0.592800
     91 H253         2.5030    -9.6150    -2.5820 ha        11 MOL       0.165000
     92 H254         6.1130   -11.7760    -3.3460 ha        11 MOL       0.165000
     93 H255         3.2960   -11.1020    -6.5210 ha        11 MOL       0.165000
     94 H250         4.2360   -12.5630    -7.2920 hn        11 MOL       0.311500
     95 H251         6.6490   -10.1220    -1.9130 hn        11 MOL       0.311500
     96 H252         1.5890    -8.2110    -3.7760 hn        11 MOL       0.311500
     97 H6           6.5940   -12.6900    -8.6680 h1        11 MOL       0.064533
     98 H7           5.2110   -13.7950    -8.9010 h1        11 MOL       0.064533
     99 H8           6.2400   -15.3830    -7.2580 hc        11 MOL       0.045700
    100 H9           7.6370   -14.2590    -7.0670 hc        11 MOL       0.045700
    101 H10          7.9740   -14.3040    -9.5510 hc        11 MOL       0.043700
    102 H11          6.5790   -15.4170    -9.7060 hc        11 MOL       0.043700
    103 H12          7.7990   -17.1340    -8.4040 hc        11 MOL       0.040700
    104 H13          9.2130   -16.0310    -8.2750 hc        11 MOL       0.040700
    105 H14          7.8620   -16.9570   -10.8780 hc        11 MOL       0.040867
    106 H15          9.2760   -15.8590   -10.7810 hc        11 MOL       0.040867
    107 H16         10.6270   -17.6880    -9.7710 hc        11 MOL       0.039867
    108 H17          9.1990   -18.7800    -9.8480 hc        11 MOL       0.039867
    109 H18         10.4760   -17.3540   -12.2530 hc        11 MOL       0.040533
    110 H19          9.0500   -18.4410   -12.3020 hc        11 MOL       0.040533
    111 H20         10.4450   -20.3150   -11.4520 hc        11 MOL       0.039700
    112 H21         11.8800   -19.2310   -11.4210 hc        11 MOL       0.039700
    113 H22         10.1680   -19.9030   -13.8910 hc        11 MOL       0.041700
    114 H23         11.6000   -18.8210   -13.8820 hc        11 MOL       0.041700
    115 H24         11.5960   -21.8000   -13.1450 hc        11 MOL       0.040200
    116 H25         13.0310   -20.7210   -13.1500 hc        11 MOL       0.040200
    117 H26         12.6740   -20.2750   -15.5860 hc        11 MOL       0.055367
    118 H27         11.2400   -21.3570   -15.5670 hc        11 MOL       0.055367
    119 H28         14.1220   -22.1770   -14.8840 h1        11 MOL       0.027700
    120 H29         12.6890   -23.2600   -14.8550 h1        11 MOL       0.027700
    121 H30         13.2760   -24.2110   -18.8170 h1        11 MOL       0.042367
    122 H31         14.6980   -23.0930   -18.8860 h1        11 MOL       0.042367
    123 H32         17.1470   -26.1330   -18.7510 h1        11 MOL       0.042533
    124 H33         15.7570   -27.2810   -18.6650 h1        11 MOL       0.042533
    125 H34         16.7240   -28.7020   -22.1850 h1        11 MOL       0.042200
    126 H35         18.0960   -27.5340   -22.2820 h1        11 MOL       0.042200
    127 H36         20.6620   -30.5650   -22.0080 h1        11 MOL       0.059200
    128 H37         19.2820   -31.7080   -21.8910 h1        11 MOL       0.059200
    129 H38         15.1110   -23.4870   -16.5030 h1        11 MOL       0.039700
    130 H39         13.6950   -24.5900   -16.4380 h1        11 MOL       0.039700
    131 H40         14.4810   -25.8360   -20.1050 h1        11 MOL       0.042367
    132 H41         15.8810   -24.6950   -20.1880 h1        11 MOL       0.042367
    133 H42         18.3890   -27.6840   -19.8960 h1        11 MOL       0.042700
    134 H43         17.0140   -28.8520   -19.8030 h1        11 MOL       0.042700
    135 H44         17.9560   -30.2790   -23.3630 h1        11 MOL       0.033700
    136 H45         19.3370   -29.1180   -23.4800 h1        11 MOL       0.033700
    137 H46         20.6560   -30.9260   -24.2950 ho        11 MOL       0.398000
    138 H47          7.6340    -9.7960     0.0160 h1        11 MOL       0.064533
    139 H48          6.3640   -11.0740     0.6150 h1        11 MOL       0.064533
    140 H49          4.9390    -9.3120     1.3240 hc        11 MOL       0.045700
    141 H50          6.0870    -8.0690     0.7000 hc        11 MOL       0.045700
    142 H51          6.7320   -10.2140     2.8010 hc        11 MOL       0.043700
    143 H52          7.8680    -8.9800     2.1740 hc        11 MOL       0.043700
    144 H53          5.3360    -8.4200     3.8020 hc        11 MOL       0.040700
    145 H54          6.4720    -7.1860     3.1550 hc        11 MOL       0.040700
    146 H55          7.2370    -9.5350     4.9850 hc        11 MOL       0.040867
    147 H56          8.3620    -8.3030     4.3320 hc        11 MOL       0.040867
    148 H57          7.1810    -6.5330     5.6120 hc        11 MOL       0.039867
    149 H58          6.0530    -7.7670     6.2780 hc        11 MOL       0.039867
    150 H59          8.0010    -9.0460     7.1800 hc        11 MOL       0.040533
    151 H60          9.1180    -7.8160     6.5080 hc        11 MOL       0.040533
    152 H61          8.1190    -6.0890     7.9890 hc        11 MOL       0.039700
    153 H62          7.0000    -7.3220     8.6710 hc        11 MOL       0.039700
    154 H63          8.9640    -8.7080     9.3690 hc        11 MOL       0.041700
    155 H64         10.0740    -7.4780     8.6840 hc        11 MOL       0.041700
    156 H65          9.2210    -5.7960    10.3080 hc        11 MOL       0.040200
    157 H66          8.1100    -7.0270    11.0000 hc        11 MOL       0.040200
    158 H67         10.4170    -5.6020    12.5550 h1        11 MOL       0.027700
    159 H68          9.3100    -6.8350    13.2540 h1        11 MOL       0.027700
    160 H69         13.4930    -6.9910    14.9260 h1        11 MOL       0.042367
    161 H70         12.3870    -8.2320    15.6370 h1        11 MOL       0.042367
    162 H71         12.3050    -6.2130    19.0260 h1        11 MOL       0.042533
    163 H72         13.4070    -4.9710    18.3130 h1        11 MOL       0.042533
    164 H73         16.2920    -6.1750    20.6710 h1        11 MOL       0.042200
    165 H74         15.1970    -7.4170    21.3860 h1        11 MOL       0.042200
    166 H75         10.0680    -8.4840    11.5390 hc        11 MOL       0.055367
    167 H76         11.1740    -7.2530    10.8450 hc        11 MOL       0.055367
    168 H77         10.4860    -6.7310    15.2850 h1        11 MOL       0.039700
    169 H78         11.5870    -5.4980    14.5790 h1        11 MOL       0.039700
    170 H79         14.4860    -6.6770    17.0120 h1        11 MOL       0.042367
    171 H80         13.3850    -7.9170    17.7240 h1        11 MOL       0.042367
    172 H81         13.3230    -5.9260    21.0990 h1        11 MOL       0.042700
    173 H82         14.4260    -4.6830    20.3870 h1        11 MOL       0.042700
    174 H83         17.3830    -5.9470    22.6910 h1        11 MOL       0.033700
    175 H84         16.2970    -7.1860    23.4330 h1        11 MOL       0.033700
    176 H85         16.3840    -4.2220    24.1010 h1        11 MOL       0.059200
    177 H86         15.3060    -5.4470    24.8530 h1        11 MOL       0.059200
    178 H87         17.2080    -6.5710    25.5440 ho        11 MOL       0.398000
    179 H88         -0.9840    -8.8280    -5.0400 h1        11 MOL       0.064533
    180 H89         -0.0880    -7.4950    -5.8100 h1        11 MOL       0.064533
    181 H90          0.0010    -6.2620    -3.6420 hc        11 MOL       0.045700
    182 H91         -0.9010    -7.5990    -2.8490 hc        11 MOL       0.045700
    183 H92         -2.7980    -7.2530    -4.4200 hc        11 MOL       0.043700
    184 H93         -1.9010    -5.9160    -5.2130 hc        11 MOL       0.043700
    185 H94         -2.7460    -6.0160    -2.2620 hc        11 MOL       0.040700
    186 H95         -1.8500    -4.6740    -3.0520 hc        11 MOL       0.040700
    187 H96         -3.7470    -4.3460    -4.6390 hc        11 MOL       0.040867
    188 H97         -4.6380    -5.6910    -3.8500 hc        11 MOL       0.040867
    189 H98         -4.6210    -4.4420    -1.6970 hc        11 MOL       0.039867
    190 H99         -3.7310    -3.0950    -2.4840 hc        11 MOL       0.039867
    191 H100        -6.4920    -4.1520    -3.3140 hc        11 MOL       0.040533
    192 H101        -5.6050    -2.8040    -4.1000 hc        11 MOL       0.040533
    193 H102        -5.6330    -1.5350    -1.9570 hc        11 MOL       0.039700
    194 H103        -6.5210    -2.8860    -1.1710 hc        11 MOL       0.039700
    195 H104        -8.3750    -2.6250    -2.8210 hc        11 MOL       0.041700
    196 H105        -7.4890    -1.2760    -3.6050 hc        11 MOL       0.041700
    197 H106        -7.5760     0.0190    -1.4780 hc        11 MOL       0.040200
    198 H107        -8.4640    -1.3310    -0.6930 hc        11 MOL       0.040200
    199 H108       -10.2820    -1.1170    -2.3860 hc        11 MOL       0.055367
    200 H109        -9.3940     0.2320    -3.1700 hc        11 MOL       0.055367
    201 H110        -9.5390     1.5560    -1.0600 h1        11 MOL       0.027700
    202 H111       -10.4300     0.2070    -0.2750 h1        11 MOL       0.027700
    203 H112       -11.3840     2.9580    -0.7510 h1        11 MOL       0.039700
    204 H113       -12.2810     1.6120     0.0340 h1        11 MOL       0.039700
    205 H114       -13.9860     1.7230    -1.7180 h1        11 MOL       0.042367
    206 H115       -13.0820     3.0730    -2.5060 h1        11 MOL       0.042367
    207 H116       -15.7110     3.1810    -1.2210 h1        11 MOL       0.042367
    208 H117       -14.7990     4.5240    -2.0070 h1        11 MOL       0.042367
    209 H118       -14.5780     5.6230     0.1190 h1        11 MOL       0.042533
    210 H119       -15.4950     4.2790     0.9080 h1        11 MOL       0.042533
    211 H120       -16.3770     7.0770     0.4990 h1        11 MOL       0.042700
    212 H121       -17.3010     5.7360     1.2860 h1        11 MOL       0.042700
    213 H122       -18.8320     5.7000    -0.5740 h1        11 MOL       0.042200
    214 H123       -17.9140     7.0380    -1.3600 h1        11 MOL       0.042200
    215 H124       -20.6620     7.0660    -0.3490 h1        11 MOL       0.033700
    216 H125       -19.7610     8.4230    -1.1320 h1        11 MOL       0.033700
    217 H126       -19.7920     9.6510     0.9920 h1        11 MOL       0.059200
    218 H127       -20.6810     8.2920     1.7620 h1        11 MOL       0.059200
    219 H128       -21.5540     9.8470    -0.4970 ho        11 MOL       0.398000
@<TRIPOS>BOND
     1     1    10 1   
     2     1    13 1   
     3     1    94 1   
     4     2    11 1   
     5     2    12 1   
     6     2    95 1   
     7     3    14 1   
     8     3    15 1   
     9     3    96 1   
    10     4     5 ar  
    11     4     9 ar  
    12     4    15 1   
    13     5     6 ar  
    14     5    91 1   
    15     6     7 ar  
    16     6    11 1   
    17     7     8 ar  
    18     7    92 1   
    19     8     9 ar  
    20     8    10 1   
    21     9    93 1   
    22    10    73 2   
    23    11    74 2   
    24    12    35 1   
    25    12   138 1   
    26    12   139 1   
    27    13    16 1   
    28    13    97 1   
    29    13    98 1   
    30    14    54 1   
    31    14   179 1   
    32    14   180 1   
    33    15    75 2   
    34    16    17 1   
    35    16    99 1   
    36    16   100 1   
    37    17    18 1   
    38    17   101 1   
    39    17   102 1   
    40    18    19 1   
    41    18   103 1   
    42    18   104 1   
    43    19    20 1   
    44    19   105 1   
    45    19   106 1   
    46    20    21 1   
    47    20   107 1   
    48    20   108 1   
    49    21    22 1   
    50    21   109 1   
    51    21   110 1   
    52    22    23 1   
    53    22   111 1   
    54    22   112 1   
    55    23    24 1   
    56    23   113 1   
    57    23   114 1   
    58    24    25 1   
    59    24   115 1   
    60    24   116 1   
    61    25    26 1   
    62    25   117 1   
    63    25   118 1   
    64    26    76 1   
    65    26   119 1   
    66    26   120 1   
    67    27    28 1   
    68    27    76 1   
    69    27   129 1   
    70    27   130 1   
    71    28    77 1   
    72    28   121 1   
    73    28   122 1   
    74    29    30 1   
    75    29    77 1   
    76    29   131 1   
    77    29   132 1   
    78    30    78 1   
    79    30   123 1   
    80    30   124 1   
    81    31    32 1   
    82    31    78 1   
    83    31   133 1   
    84    31   134 1   
    85    32    79 1   
    86    32   125 1   
    87    32   126 1   
    88    33    34 1   
    89    33    79 1   
    90    33   135 1   
    91    33   136 1   
    92    34    80 1   
    93    34   127 1   
    94    34   128 1   
    95    35    36 1   
    96    35   140 1   
    97    35   141 1   
    98    36    37 1   
    99    36   142 1   
   100    36   143 1   
   101    37    38 1   
   102    37   144 1   
   103    37   145 1   
   104    38    39 1   
   105    38   146 1   
   106    38   147 1   
   107    39    40 1   
   108    39   148 1   
   109    39   149 1   
   110    40    41 1   
   111    40   150 1   
   112    40   151 1   
   113    41    42 1   
   114    41   152 1   
   115    41   153 1   
   116    42    43 1   
   117    42   154 1   
   118    42   155 1   
   119    43    44 1   
   120    43   156 1   
   121    43   157 1   
   122    44    45 1   
   123    44   166 1   
   124    44   167 1   
   125    45    81 1   
   126    45   158 1   
   127    45   159 1   
   128    46    47 1   
   129    46    81 1   
   130    46   168 1   
   131    46   169 1   
   132    47    82 1   
   133    47   160 1   
   134    47   161 1   
   135    48    49 1   
   136    48    82 1   
   137    48   170 1   
   138    48   171 1   
   139    49    83 1   
   140    49   162 1   
   141    49   163 1   
   142    50    51 1   
   143    50    83 1   
   144    50   172 1   
   145    50   173 1   
   146    51    84 1   
   147    51   164 1   
   148    51   165 1   
   149    52    53 1   
   150    52    84 1   
   151    52   174 1   
   152    52   175 1   
   153    53    85 1   
   154    53   176 1   
   155    53   177 1   
   156    54    55 1   
   157    54   181 1   
   158    54   182 1   
   159    55    56 1   
   160    55   183 1   
   161    55   184 1   
   162    56    57 1   
   163    56   185 1   
   164    56   186 1   
   165    57    58 1   
   166    57   187 1   
   167    57   188 1   
   168    58    59 1   
   169    58   189 1   
   170    58   190 1   
   171    59    60 1   
   172    59   191 1   
   173    59   192 1   
   174    60    61 1   
   175    60   193 1   
   176    60   194 1   
   177    61    62 1   
   178    61   195 1   
   179    61   196 1   
   180    62    63 1   
   181    62   197 1   
   182    62   198 1   
   183    63    64 1   
   184    63   199 1   
   185    63   200 1   
   186    64    86 1   
   187    64   201 1   
   188    64   202 1   
   189    65    66 1   
   190    65    86 1   
   191    65   203 1   
   192    65   204 1   
   193    66    87 1   
   194    66   205 1   
   195    66   206 1   
   196    67    68 1   
   197    67    87 1   
   198    67   207 1   
   199    67   208 1   
   200    68    88 1   
   201    68   209 1   
   202    68   210 1   
   203    69    70 1   
   204    69    88 1   
   205    69   211 1   
   206    69   212 1   
   207    70    89 1   
   208    70   213 1   
   209    70   214 1   
   210    71    72 1   
   211    71    89 1   
   212    71   215 1   
   213    71   216 1   
   214    72    90 1   
   215    72   217 1   
   216    72   218 1   
   217    80   137 1   
   218    85   178 1   
   219    90   219 1   
@<TRIPOS>SUBSTRUCTURE
     1 MOL         1 TEMP              0 ****  ****    0 ROOT
