@<TRIPOS>MOLECULE
MOL
  219   219     1     0     0
SMALL
bcc


@<TRIPOS>ATOM
      1 N           14.9260     0.3300   -16.5500 n         16 MOL      -0.563233
      2 N1          11.0590     4.3510   -13.2920 n         16 MOL      -0.563233
      3 N2           8.4470     3.4470   -17.5900 n         16 MOL      -0.563233
      4 C           10.4840     2.2660   -16.9770 ca        16 MOL      -0.153933
      5 C1          10.5580     2.7950   -15.6800 ca        16 MOL      -0.040667
      6 C2          11.7340     2.6920   -14.9180 ca        16 MOL      -0.153933
      7 C3          12.8360     2.0220   -15.4670 ca        16 MOL      -0.040667
      8 C4          12.7880     1.4710   -16.7590 ca        16 MOL      -0.153933
      9 C5          11.6040     1.6040   -17.4960 ca        16 MOL      -0.040667
     10 C6          13.9800     0.7810   -17.3820 c         16 MOL       0.669367
     11 C7          11.8230     3.2790   -13.5280 c         16 MOL       0.669367
     12 C8          10.9450     4.9770   -11.9750 c3        16 MOL       0.084333
     13 C9          16.0800    -0.3260   -17.0580 c3        16 MOL       0.084333
     14 C10          7.2520     3.6260   -18.3680 c3        16 MOL       0.084333
     15 C11          9.2350     2.3870   -17.8170 c         16 MOL       0.669367
     16 C12         17.0870    -0.5270   -15.9290 c3        16 MOL      -0.104733
     17 C13         18.3220    -1.2420   -16.4680 c3        16 MOL      -0.077400
     18 C14         19.3010    -1.4280   -15.3110 c3        16 MOL      -0.078400
     19 C15         20.5540    -2.1560   -15.7930 c3        16 MOL      -0.079400
     20 C16         21.4860    -2.3230   -14.5970 c3        16 MOL      -0.078733
     21 C17         22.7480    -3.0660   -15.0240 c3        16 MOL      -0.079400
     22 C18         23.6410    -3.2230   -13.7950 c3        16 MOL      -0.079400
     23 C19         24.9090    -3.9840   -14.1750 c3        16 MOL      -0.078400
     24 C20         25.7760    -4.1420   -12.9260 c3        16 MOL      -0.078400
     25 C21         27.0390    -4.9210   -13.2880 c3        16 MOL      -0.084400
     26 C22         27.9000    -5.0900   -12.0330 c3        16 MOL       0.133400
     27 C23         29.8560    -6.0130   -11.2440 c3        16 MOL       0.128400
     28 C24         31.0320    -6.8010   -11.6450 c3        16 MOL       0.130400
     29 C25         32.8380    -7.6640   -10.7240 c3        16 MOL       0.130400
     30 C26         33.4830    -7.7450    -9.4580 c3        16 MOL       0.129400
     31 C27         35.3470    -8.7140    -8.7520 c3        16 MOL       0.130400
     32 C28         36.3560    -9.4990    -9.3950 c3        16 MOL       0.128400
     33 C29         38.2520   -10.5390    -8.9440 c3        16 MOL       0.094400
     34 C30         39.1390   -10.7630    -7.7850 c3        16 MOL       0.125400
     35 C31         12.2730     5.3520   -11.2960 c3        16 MOL      -0.104733
     36 C32         11.8640     5.9250    -9.9400 c3        16 MOL      -0.077400
     37 C33         13.0620     6.3330    -9.0960 c3        16 MOL      -0.078400
     38 C34         12.4840     6.8540    -7.7750 c3        16 MOL      -0.079400
     39 C35         13.5790     7.2850    -6.8020 c3        16 MOL      -0.078733
     40 C36         12.8720     7.7560    -5.5260 c3        16 MOL      -0.079400
     41 C37         13.8850     8.1940    -4.4700 c3        16 MOL      -0.079400
     42 C38         13.1000     8.6310    -3.2240 c3        16 MOL      -0.078400
     43 C39         14.0590     9.0710    -2.1150 c3        16 MOL      -0.078400
     44 C40         13.2290     9.4860    -0.8930 c3        16 MOL      -0.084400
     45 C41         14.1630     9.9260     0.2420 c3        16 MOL       0.133400
     46 C42         14.2100    10.6990     2.4020 c3        16 MOL       0.128400
     47 C43         13.3810    11.0870     3.5570 c3        16 MOL       0.130400
     48 C44         13.7950    11.8500     5.6100 c3        16 MOL       0.130400
     49 C45         14.9590    12.1620     6.3560 c3        16 MOL       0.129400
     50 C46         15.4270    12.9350     8.3520 c3        16 MOL       0.130400
     51 C47         14.6860    13.3570     9.4960 c3        16 MOL       0.128400
     52 C48         15.0930    14.1440    11.5340 c3        16 MOL       0.094400
     53 C49         16.2800    14.4710    12.3480 c3        16 MOL       0.125400
     54 C50          6.3600     4.6950   -17.7300 c3        16 MOL      -0.104733
     55 C51          5.0960     4.8740   -18.5710 c3        16 MOL      -0.077400
     56 C52          4.2270     5.9420   -17.9060 c3        16 MOL      -0.078400
     57 C53          2.9450     6.1550   -18.7160 c3        16 MOL      -0.079400
     58 C54          2.1060     7.2240   -18.0160 c3        16 MOL      -0.078733
     59 C55          0.8160     7.4630   -18.8000 c3        16 MOL      -0.079400
     60 C56          0.0010     8.5350   -18.0750 c3        16 MOL      -0.079400
     61 C57         -1.2990     8.7980   -18.8400 c3        16 MOL      -0.078400
     62 C58         -2.1020     9.8710   -18.1020 c3        16 MOL      -0.078400
     63 C59         -3.4020    10.1400   -18.8640 c3        16 MOL      -0.084400
     64 C60         -4.2050    11.2170   -18.1240 c3        16 MOL       0.133400
     65 C61         -6.1510    12.4430   -18.1800 c3        16 MOL       0.128400
     66 C62         -7.3840    12.6780   -18.9500 c3        16 MOL       0.130400
     67 C63         -9.1740    13.9730   -18.8130 c3        16 MOL       0.130400
     68 C64         -9.7040    14.9720   -17.9520 c3        16 MOL       0.129400
     69 C65        -11.5330    16.2090   -17.9470 c3        16 MOL       0.130400
     70 C66        -12.6640    16.3310   -18.8130 c3        16 MOL       0.128400
     71 C67        -14.5540    17.4730   -18.9730 c3        16 MOL       0.094400
     72 C68        -15.2800    18.5040   -18.2060 c3        16 MOL       0.125400
     73 O           14.0640     0.6340   -18.6030 o         16 MOL      -0.595767
     74 O1          12.5760     2.8000   -12.6770 o         16 MOL      -0.595767
     75 O2           8.9790     1.5570   -18.6920 o         16 MOL      -0.595767
     76 O3          29.0720    -5.8330   -12.3700 os        16 MOL      -0.427600
     77 O4          31.7560    -6.9480   -10.4860 os        16 MOL      -0.430600
     78 O5          34.5430    -8.4760    -9.7820 os        16 MOL      -0.430600
     79 O6          37.2140    -9.7850    -8.4370 os        16 MOL      -0.425600
     80 O7          40.2280   -11.5150    -8.2070 oh        16 MOL      -0.592800
     81 O8          13.3770    10.3070     1.3790 os        16 MOL      -0.427600
     82 O9          14.3260    11.4470     4.4760 os        16 MOL      -0.430600
     83 O10         14.4600    12.5820     7.5090 os        16 MOL      -0.430600
     84 O11         15.6310    13.7120    10.3440 os        16 MOL      -0.425600
     85 O12         15.8540    14.9140    13.5900 oh        16 MOL      -0.592800
     86 O13         -5.4190    11.4710   -18.8380 os        16 MOL      -0.427600
     87 O14         -8.0370    13.6490   -18.2300 os        16 MOL      -0.430600
     88 O15        -10.8360    15.2680   -18.5760 os        16 MOL      -0.430600
     89 O16        -13.4060    17.2580   -18.2410 os        16 MOL      -0.425600
     90 O17        -16.4690    18.7850   -18.8660 oh        16 MOL      -0.592800
     91 H253         9.7340     3.2680   -15.2780 ha        16 MOL       0.161000
     92 H254        13.7010     1.9310   -14.9110 ha        16 MOL       0.161000
     93 H255        11.5560     1.2040   -18.4460 ha        16 MOL       0.161000
     94 H250        14.7700     0.4260   -15.5830 hn        16 MOL       0.307500
     95 H251        10.5400     4.7120   -14.0470 hn        16 MOL       0.307500
     96 H5          10.4450     4.2570   -11.3100 h1        16 MOL       0.064700
     97 H6          10.3230     5.8790   -12.0600 h1        16 MOL       0.064700
     98 H7          16.5150     0.2770   -17.8680 h1        16 MOL       0.064700
     99 H8          15.7840    -1.2990   -17.4740 h1        16 MOL       0.064700
    100 H252         8.7130     4.0820   -16.8860 hn        16 MOL       0.307500
    101 H10          6.7210     2.6660   -18.4350 h1        16 MOL       0.064700
    102 H11          7.5330     3.9350   -19.3840 h1        16 MOL       0.064700
    103 H12         16.6320    -1.1370   -15.1360 hc        16 MOL       0.044700
    104 H13         17.3800     0.4500   -15.5190 hc        16 MOL       0.044700
    105 H14         18.7880    -0.6390   -17.2600 hc        16 MOL       0.043700
    106 H15         18.0330    -2.2220   -16.8730 hc        16 MOL       0.043700
    107 H16         18.8190    -2.0230   -14.5220 hc        16 MOL       0.040700
    108 H17         19.5810    -0.4440   -14.9080 hc        16 MOL       0.040700
    109 H18         21.0530    -1.5700   -16.5780 hc        16 MOL       0.040867
    110 H19         20.2790    -3.1450   -16.1880 hc        16 MOL       0.040867
    111 H20         20.9730    -2.9020   -13.8170 hc        16 MOL       0.039867
    112 H21         21.7570    -1.3340   -14.2020 hc        16 MOL       0.039867
    113 H22         23.2760    -2.4950   -15.8010 hc        16 MOL       0.040533
    114 H23         22.4770    -4.0580   -15.4130 hc        16 MOL       0.040533
    115 H24         23.0970    -3.7860   -13.0230 hc        16 MOL       0.039700
    116 H25         23.9070    -2.2290   -13.4060 hc        16 MOL       0.039700
    117 H26         25.4640    -3.4290   -14.9450 hc        16 MOL       0.041867
    118 H27         24.6390    -4.9770   -14.5610 hc        16 MOL       0.041867
    119 H28         25.2150    -4.6940   -12.1600 hc        16 MOL       0.040033
    120 H29         26.0500    -3.1500   -12.5380 hc        16 MOL       0.040033
    121 H30         27.6050    -4.3720   -14.0560 hc        16 MOL       0.055200
    122 H31         26.7570    -5.9100   -13.6760 hc        16 MOL       0.055200
    123 H32         27.3260    -5.6360   -11.2690 h1        16 MOL       0.027700
    124 H33         28.1840    -4.1010   -11.6420 h1        16 MOL       0.027700
    125 H34         29.2950    -6.5630   -10.4750 h1        16 MOL       0.039700
    126 H35         30.1810    -5.0420   -10.8440 h1        16 MOL       0.039700
    127 H36         31.6160    -6.2620   -12.4070 h1        16 MOL       0.042367
    128 H37         30.7170    -7.7830   -12.0350 h1        16 MOL       0.042367
    129 H38         33.4930    -7.1640   -11.4510 h1        16 MOL       0.042367
    130 H39         32.5760    -8.6710   -11.0780 h1        16 MOL       0.042367
    131 H40         32.8430    -8.2570    -8.7240 h1        16 MOL       0.042700
    132 H41         33.7670    -6.7460    -9.0970 h1        16 MOL       0.042700
    133 H42         34.8410    -9.2920    -7.9630 h1        16 MOL       0.042700
    134 H43         35.7720    -7.7860    -8.3420 h1        16 MOL       0.042700
    135 H44         36.8350    -8.9120   -10.1910 h1        16 MOL       0.042200
    136 H45         35.9120   -10.4130    -9.8150 h1        16 MOL       0.042200
    137 H46         38.7870    -9.9830    -9.7310 h1        16 MOL       0.033700
    138 H47         37.8820   -11.4960    -9.3420 h1        16 MOL       0.033700
    139 H48         38.5880   -11.3010    -7.0010 h1        16 MOL       0.059533
    140 H49         39.4790    -9.7930    -7.3990 h1        16 MOL       0.059533
    141 H50         39.9230   -12.3950    -8.5450 ho        16 MOL       0.398000
    142 H51         12.8200     6.1000   -11.8870 hc        16 MOL       0.044700
    143 H52         12.8970     4.4580   -11.1500 hc        16 MOL       0.044700
    144 H53         11.2980     5.1570    -9.3940 hc        16 MOL       0.043700
    145 H54         11.2210     6.8020   -10.1000 hc        16 MOL       0.043700
    146 H55         13.6380     7.1170    -9.6060 hc        16 MOL       0.040700
    147 H56         13.7040     5.4610    -8.9090 hc        16 MOL       0.040700
    148 H57         11.8960     6.0510    -7.3080 hc        16 MOL       0.040867
    149 H58         11.8280     7.7110    -7.9820 hc        16 MOL       0.040867
    150 H59         14.1730     8.1040    -7.2330 hc        16 MOL       0.039867
    151 H60         14.2330     6.4320    -6.5730 hc        16 MOL       0.039867
    152 H61         12.2730     6.9270    -5.1230 hc        16 MOL       0.040533
    153 H62         12.2100     8.6000    -5.7670 hc        16 MOL       0.040533
    154 H63         14.4860     9.0320    -4.8520 hc        16 MOL       0.039700
    155 H64         14.5440     7.3510    -4.2180 hc        16 MOL       0.039700
    156 H65         12.4970     7.7860    -2.8620 hc        16 MOL       0.041867
    157 H66         12.4370     9.4680    -3.4840 hc        16 MOL       0.041867
    158 H67         14.6630     9.9220    -2.4610 hc        16 MOL       0.040033
    159 H68         14.7200     8.2350    -1.8460 hc        16 MOL       0.040033
    160 H69         12.6230     8.6310    -0.5580 hc        16 MOL       0.055200
    161 H70         12.5650    10.3190    -1.1680 hc        16 MOL       0.055200
    162 H71         14.7690    10.7810    -0.0930 h1        16 MOL       0.027700
    163 H72         14.8250     9.0910     0.5140 h1        16 MOL       0.027700
    164 H73         14.8170    11.5590     2.0880 h1        16 MOL       0.039700
    165 H74         14.8690     9.8690     2.6930 h1        16 MOL       0.039700
    166 H75         12.7800    10.2350     3.9140 h1        16 MOL       0.042367
    167 H76         12.7280    11.9370     3.3010 h1        16 MOL       0.042367
    168 H77         13.2210    11.0510     6.1000 h1        16 MOL       0.042367
    169 H78         13.1730    12.7450     5.4720 h1        16 MOL       0.042367
    170 H79         15.5310    12.9560     5.8520 h1        16 MOL       0.042700
    171 H80         15.5830    11.2650     6.4860 h1        16 MOL       0.042700
    172 H81         16.0260    13.7670     7.9520 h1        16 MOL       0.042700
    173 H82         16.0750    12.0820     8.6050 h1        16 MOL       0.042700
    174 H83         14.0880    12.5230     9.8890 h1        16 MOL       0.042200
    175 H84         14.0380    14.2060     9.2390 h1        16 MOL       0.042200
    176 H85         14.5070    13.3420    12.0120 h1        16 MOL       0.033700
    177 H86         14.4640    15.0350    11.3810 h1        16 MOL       0.033700
    178 H87         16.8630    15.2550    11.8460 h1        16 MOL       0.059533
    179 H88         16.8960    13.5690    12.4630 h1        16 MOL       0.059533
    180 H89         15.3100    15.7370    13.4930 ho        16 MOL       0.398000
    181 H90          6.9040     5.6490   -17.6830 hc        16 MOL       0.044700
    182 H91          6.0790     4.3800   -16.7150 hc        16 MOL       0.044700
    183 H92          4.5460     3.9230   -18.6190 hc        16 MOL       0.043700
    184 H93          5.3690     5.1930   -19.5870 hc        16 MOL       0.043700
    185 H94          4.7870     6.8870   -17.8540 hc        16 MOL       0.040700
    186 H95          3.9650     5.6160   -16.8890 hc        16 MOL       0.040700
    187 H96          2.3770     5.2150   -18.7670 hc        16 MOL       0.040867
    188 H97          3.1980     6.4890   -19.7330 hc        16 MOL       0.040867
    189 H98          2.6790     8.1610   -17.9620 hc        16 MOL       0.039867
    190 H99          1.8590     6.8870   -17.0000 hc        16 MOL       0.039867
    191 H100         0.2370     6.5300   -18.8540 hc        16 MOL       0.040533
    192 H101         1.0590     7.8060   -19.8160 hc        16 MOL       0.040533
    193 H102         0.5880     9.4630   -18.0190 hc        16 MOL       0.039700
    194 H103        -0.2340     8.1880   -17.0580 hc        16 MOL       0.039700
    195 H104        -1.8890     7.8720   -18.8970 hc        16 MOL       0.041867
    196 H105        -1.0660     9.1470   -19.8560 hc        16 MOL       0.041867
    197 H106        -1.5120    10.7970   -18.0450 hc        16 MOL       0.040033
    198 H107        -2.3360     9.5220   -17.0860 hc        16 MOL       0.040033
    199 H108        -3.9910     9.2130   -18.9220 hc        16 MOL       0.055200
    200 H109        -3.1650    10.4890   -19.8800 hc        16 MOL       0.055200
    201 H110        -3.6110    12.1410   -18.0660 h1        16 MOL       0.027700
    202 H111        -4.4400    10.8660   -17.1080 h1        16 MOL       0.027700
    203 H112        -5.5760    13.3780   -18.1220 h1        16 MOL       0.039700
    204 H113        -6.4120    12.1040   -17.1680 h1        16 MOL       0.039700
    205 H114        -7.9870    11.7580   -19.0070 h1        16 MOL       0.042367
    206 H115        -7.1430    13.0380   -19.9640 h1        16 MOL       0.042367
    207 H116        -9.8560    13.1130   -18.8650 h1        16 MOL       0.042367
    208 H117        -9.0040    14.3870   -19.8160 h1        16 MOL       0.042367
    209 H118        -9.0290    15.8390   -17.9010 h1        16 MOL       0.042700
    210 H119        -9.8860    14.5640   -16.9470 h1        16 MOL       0.042700
    211 H120       -10.9780    17.1580   -17.8930 h1        16 MOL       0.042700
    212 H121       -11.8430    15.8840   -16.9430 h1        16 MOL       0.042700
    213 H122       -13.2000    15.3730   -18.8680 h1        16 MOL       0.042200
    214 H123       -12.3410    16.6430   -19.8160 h1        16 MOL       0.042200
    215 H124       -15.1540    16.5500   -19.0360 h1        16 MOL       0.033700
    216 H125       -14.3120    17.8370   -19.9840 h1        16 MOL       0.033700
    217 H126       -14.6630    19.4100   -18.1350 h1        16 MOL       0.059533
    218 H127       -15.4920    18.1210   -17.1990 h1        16 MOL       0.059533
    219 H128       -16.2800    19.1440   -19.7700 ho        16 MOL       0.398000
@<TRIPOS>BOND
     1     1    10 1   
     2     1    13 1   
     3     1    94 1   
     4     2    11 1   
     5     2    12 1   
     6     2    95 1   
     7     3    14 1   
     8     3    15 1   
     9     3   100 1   
    10     4     5 ar  
    11     4     9 ar  
    12     4    15 1   
    13     5     6 ar  
    14     5    91 1   
    15     6     7 ar  
    16     6    11 1   
    17     7     8 ar  
    18     7    92 1   
    19     8     9 ar  
    20     8    10 1   
    21     9    93 1   
    22    10    73 2   
    23    11    74 2   
    24    12    35 1   
    25    12    96 1   
    26    12    97 1   
    27    13    16 1   
    28    13    98 1   
    29    13    99 1   
    30    14    54 1   
    31    14   101 1   
    32    14   102 1   
    33    15    75 2   
    34    16    17 1   
    35    16   103 1   
    36    16   104 1   
    37    17    18 1   
    38    17   105 1   
    39    17   106 1   
    40    18    19 1   
    41    18   107 1   
    42    18   108 1   
    43    19    20 1   
    44    19   109 1   
    45    19   110 1   
    46    20    21 1   
    47    20   111 1   
    48    20   112 1   
    49    21    22 1   
    50    21   113 1   
    51    21   114 1   
    52    22    23 1   
    53    22   115 1   
    54    22   116 1   
    55    23    24 1   
    56    23   117 1   
    57    23   118 1   
    58    24    25 1   
    59    24   119 1   
    60    24   120 1   
    61    25    26 1   
    62    25   121 1   
    63    25   122 1   
    64    26    76 1   
    65    26   123 1   
    66    26   124 1   
    67    27    28 1   
    68    27    76 1   
    69    27   125 1   
    70    27   126 1   
    71    28    77 1   
    72    28   127 1   
    73    28   128 1   
    74    29    30 1   
    75    29    77 1   
    76    29   129 1   
    77    29   130 1   
    78    30    78 1   
    79    30   131 1   
    80    30   132 1   
    81    31    32 1   
    82    31    78 1   
    83    31   133 1   
    84    31   134 1   
    85    32    79 1   
    86    32   135 1   
    87    32   136 1   
    88    33    34 1   
    89    33    79 1   
    90    33   137 1   
    91    33   138 1   
    92    34    80 1   
    93    34   139 1   
    94    34   140 1   
    95    35    36 1   
    96    35   142 1   
    97    35   143 1   
    98    36    37 1   
    99    36   144 1   
   100    36   145 1   
   101    37    38 1   
   102    37   146 1   
   103    37   147 1   
   104    38    39 1   
   105    38   148 1   
   106    38   149 1   
   107    39    40 1   
   108    39   150 1   
   109    39   151 1   
   110    40    41 1   
   111    40   152 1   
   112    40   153 1   
   113    41    42 1   
   114    41   154 1   
   115    41   155 1   
   116    42    43 1   
   117    42   156 1   
   118    42   157 1   
   119    43    44 1   
   120    43   158 1   
   121    43   159 1   
   122    44    45 1   
   123    44   160 1   
   124    44   161 1   
   125    45    81 1   
   126    45   162 1   
   127    45   163 1   
   128    46    47 1   
   129    46    81 1   
   130    46   164 1   
   131    46   165 1   
   132    47    82 1   
   133    47   166 1   
   134    47   167 1   
   135    48    49 1   
   136    48    82 1   
   137    48   168 1   
   138    48   169 1   
   139    49    83 1   
   140    49   170 1   
   141    49   171 1   
   142    50    51 1   
   143    50    83 1   
   144    50   172 1   
   145    50   173 1   
   146    51    84 1   
   147    51   174 1   
   148    51   175 1   
   149    52    53 1   
   150    52    84 1   
   151    52   176 1   
   152    52   177 1   
   153    53    85 1   
   154    53   178 1   
   155    53   179 1   
   156    54    55 1   
   157    54   181 1   
   158    54   182 1   
   159    55    56 1   
   160    55   183 1   
   161    55   184 1   
   162    56    57 1   
   163    56   185 1   
   164    56   186 1   
   165    57    58 1   
   166    57   187 1   
   167    57   188 1   
   168    58    59 1   
   169    58   189 1   
   170    58   190 1   
   171    59    60 1   
   172    59   191 1   
   173    59   192 1   
   174    60    61 1   
   175    60   193 1   
   176    60   194 1   
   177    61    62 1   
   178    61   195 1   
   179    61   196 1   
   180    62    63 1   
   181    62   197 1   
   182    62   198 1   
   183    63    64 1   
   184    63   199 1   
   185    63   200 1   
   186    64    86 1   
   187    64   201 1   
   188    64   202 1   
   189    65    66 1   
   190    65    86 1   
   191    65   203 1   
   192    65   204 1   
   193    66    87 1   
   194    66   205 1   
   195    66   206 1   
   196    67    68 1   
   197    67    87 1   
   198    67   207 1   
   199    67   208 1   
   200    68    88 1   
   201    68   209 1   
   202    68   210 1   
   203    69    70 1   
   204    69    88 1   
   205    69   211 1   
   206    69   212 1   
   207    70    89 1   
   208    70   213 1   
   209    70   214 1   
   210    71    72 1   
   211    71    89 1   
   212    71   215 1   
   213    71   216 1   
   214    72    90 1   
   215    72   217 1   
   216    72   218 1   
   217    80   141 1   
   218    85   180 1   
   219    90   219 1   
@<TRIPOS>SUBSTRUCTURE
     1 MOL         1 TEMP              0 ****  ****    0 ROOT
