@<TRIPOS>MOLECULE
MOL
  378   381     1     0     0
SMALL
bcc


@<TRIPOS>ATOM
      1 N           15.8470     3.0330   -19.8150 n         17 MOL      -0.559233
      2 N1          12.8360     6.9700   -15.5650 n         17 MOL      -0.559233
      3 N2           9.8670     5.3010   -20.8720 n         17 MOL      -0.559233
      4 C           11.8900     4.6780   -19.6900 ca        17 MOL      -0.155933
      5 C1          11.5020     5.2930   -18.4920 ca        17 MOL      -0.038000
      6 C2          12.4150     5.5200   -17.4580 ca        17 MOL      -0.155933
      7 C3          13.7380     5.0880   -17.6180 ca        17 MOL      -0.038000
      8 C4          14.1560     4.4410   -18.7890 ca        17 MOL      -0.155933
      9 C5          13.2200     4.2500   -19.8210 ca        17 MOL      -0.038000
     10 C6          15.5950     3.9930   -18.9180 c         17 MOL       0.669367
     11 C7          11.9510     6.1820   -16.1860 c         17 MOL       0.669367
     12 C8          12.4340     7.6450   -14.3810 c3        17 MOL       0.084333
     13 C9          17.1850     2.5510   -20.1050 c3        17 MOL       0.084333
     14 C10          8.8640     5.1770   -21.8560 c3        17 MOL       0.084333
     15 C11         10.8990     4.4490   -20.8090 c         17 MOL       0.669367
     16 C12          7.6880     6.0310   -21.4110 c3        17 MOL      -0.105067
     17 C13          6.5670     5.9450   -22.4250 c3        17 MOL      -0.077400
     18 C14          5.4330     6.8190   -21.9100 c3        17 MOL      -0.078733
     19 C15          4.2690     6.7800   -22.8810 c3        17 MOL      -0.079400
     20 C16          3.1690     7.6670   -22.3240 c3        17 MOL      -0.079067
     21 C17          1.9950     7.6460   -23.2810 c3        17 MOL      -0.079400
     22 C18          0.8970     8.5370   -22.7260 c3        17 MOL      -0.079400
     23 C19         -0.2650     8.5050   -23.7010 c3        17 MOL      -0.078400
     24 C20         -1.3890     9.3920   -23.1900 c3        17 MOL      -0.078400
     25 C21         -2.5150     9.3230   -24.2060 c3        17 MOL      -0.084067
     26 C22         -3.6760    10.1960   -23.7660 c3        17 MOL       0.133067
     27 C23         -5.7600    10.8540   -24.4660 c3        17 MOL       0.128067
     28 C24         -6.7000    10.6540   -25.5630 c3        17 MOL       0.129400
     29 C25         -8.6690    11.3420   -26.1690 c3        17 MOL       0.129400
     30 C26         -9.6860    12.2120   -25.7270 c3        17 MOL       0.128400
     31 C27        -11.6440    12.7860   -26.5650 c3        17 MOL       0.127733
     32 C28        -12.3630    12.4000   -27.7360 c3        17 MOL       0.125400
     33 C29        -14.3150    12.8130   -28.7110 c3        17 MOL       0.106067
     34 C30        -15.4880    13.6660   -28.4560 c3        17 MOL       0.073667
     35 C31         13.5870     7.9260   -13.4270 c3        17 MOL      -0.105067
     36 C32         12.9560     8.6570   -12.2470 c3        17 MOL      -0.077400
     37 C33         13.9810     9.0120   -11.1800 c3        17 MOL      -0.078733
     38 C34         13.2060     9.7390   -10.0840 c3        17 MOL      -0.079400
     39 C35         14.1120    10.1600    -8.9340 c3        17 MOL      -0.079067
     40 C36         13.2190    10.8780    -7.9260 c3        17 MOL      -0.079400
     41 C37         14.0220    11.3530    -6.7220 c3        17 MOL      -0.079400
     42 C38         13.0430    12.0670    -5.7880 c3        17 MOL      -0.078400
     43 C39         13.7590    12.5860    -4.5450 c3        17 MOL      -0.078400
     44 C40         12.7180    13.2950    -3.6750 c3        17 MOL      -0.084067
     45 C41         13.3740    13.8460    -2.4110 c3        17 MOL       0.133067
     46 C42         12.9140    15.0220    -0.4970 c3        17 MOL       0.128067
     47 C43         11.8400    15.7030     0.2350 c3        17 MOL       0.129400
     48 C44         11.6910    16.8440     2.1240 c3        17 MOL       0.129400
     49 C45         12.5800    17.2180     3.1550 c3        17 MOL       0.128400
     50 C46         12.4670    18.3590     5.0170 c3        17 MOL       0.127733
     51 C47         11.4630    19.0760     5.7360 c3        17 MOL       0.125400
     52 C48         11.3260    20.2800     7.6290 c3        17 MOL       0.106067
     53 C49         12.2490    20.6920     8.7170 c3        17 MOL       0.073667
     54 C50         17.9560     2.0620   -18.8630 c3        17 MOL      -0.105067
     55 C51         19.3370     1.6310   -19.3500 c3        17 MOL      -0.077400
     56 C52         20.1980     1.1520   -18.1870 c3        17 MOL      -0.078733
     57 C53         21.5570     0.7520   -18.7650 c3        17 MOL      -0.079400
     58 C54         22.4970     0.2730   -17.6600 c3        17 MOL      -0.079067
     59 C55         23.8270    -0.1030   -18.3180 c3        17 MOL      -0.079400
     60 C56         24.8230    -0.5850   -17.2630 c3        17 MOL      -0.079400
     61 C57         26.1320    -0.9520   -17.9780 c3        17 MOL      -0.078400
     62 C58         27.1740    -1.4410   -16.9660 c3        17 MOL      -0.078400
     63 C59         28.4580    -1.8050   -17.7290 c3        17 MOL      -0.084067
     64 C60         29.5330    -2.3040   -16.7440 c3        17 MOL       0.133067
     65 C61         31.7060    -3.1130   -16.5570 c3        17 MOL       0.128067
     66 C62         32.9730    -3.5270   -17.3440 c3        17 MOL       0.129400
     67 C63         35.1190    -4.4110   -17.1920 c3        17 MOL       0.129400
     68 C64         36.2210    -4.9330   -16.2130 c3        17 MOL       0.128400
     69 C65         38.3440    -5.8390   -15.9390 c3        17 MOL       0.127733
     70 C66         39.6590    -6.3940   -16.6060 c3        17 MOL       0.125400
     71 C67         41.7820    -7.4050   -16.1940 c3        17 MOL       0.106067
     72 C68         42.8290    -7.9110   -15.0860 c3        17 MOL       0.073667
     73 O           16.4830     4.4890   -18.2200 o         17 MOL      -0.606767
     74 O1          10.8100     6.0000   -15.7650 o         17 MOL      -0.606767
     75 O2          11.0490     3.5340   -21.6200 o         17 MOL      -0.606767
     76 O5          -4.6770    10.0820   -24.7660 os        17 MOL      -0.428267
     77 O6          -7.7560    11.4410   -25.2380 os        17 MOL      -0.429933
     78 O7         -10.5490    12.0530   -26.7090 os        17 MOL      -0.430600
     79 O8         -13.4790    13.0990   -27.6600 os        17 MOL      -0.421600
     80 O9          12.3680    14.5070    -1.6410 os        17 MOL      -0.428267
     81 O10         12.4930    16.1720     1.3330 os        17 MOL      -0.429933
     82 O11         11.7930    17.9060     3.9600 os        17 MOL      -0.430600
     83 O12         12.1300    19.5340     6.7890 os        17 MOL      -0.421600
     84 O13         30.7140    -2.6520   -17.4690 os        17 MOL      -0.428267
     85 O14         33.9740    -3.9990   -16.4410 os        17 MOL      -0.429933
     86 O15         37.3950    -5.3800   -16.9210 os        17 MOL      -0.430600
     87 O16         40.5720    -6.8440   -15.5860 os        17 MOL      -0.421600
     88 H253        10.5200     5.5850   -18.3700 ha        17 MOL       0.162000
     89 H254        14.4180     5.2490   -16.8590 ha        17 MOL       0.162000
     90 H255        13.5170     3.7850   -20.6930 ha        17 MOL       0.162000
     91 H250        15.0800     2.6660   -20.3110 hn        17 MOL       0.312167
     92 H251        13.7210     7.0770   -15.9830 hn        17 MOL       0.312167
     93 H6          11.6650     7.0420   -13.8770 h1        17 MOL       0.064033
     94 H7          11.9840     8.6040   -14.6720 h1        17 MOL       0.064033
     95 H8          17.7590     3.3840   -20.5350 h1        17 MOL       0.064033
     96 H9          17.1210     1.7350   -20.8370 h1        17 MOL       0.064033
     97 H252         9.8650     6.0530   -20.2370 hn        17 MOL       0.312167
     98 H10          8.5750     4.1210   -21.9590 h1        17 MOL       0.064033
     99 H11          9.2480     5.5340   -22.8210 h1        17 MOL       0.064033
    100 H12          8.0120     7.0770   -21.3170 hc        17 MOL       0.046200
    101 H13          7.3250     5.6710   -20.4370 hc        17 MOL       0.046200
    102 H14          6.2270     4.9040   -22.5190 hc        17 MOL       0.043200
    103 H15          6.9150     6.3110   -23.4000 hc        17 MOL       0.043200
    104 H16          5.7890     7.8540   -21.8090 hc        17 MOL       0.041033
    105 H17          5.1030     6.4480   -20.9300 hc        17 MOL       0.041033
    106 H18          3.9000     5.7490   -22.9830 hc        17 MOL       0.040700
    107 H19          4.5890     7.1570   -23.8630 hc        17 MOL       0.040700
    108 H20          3.5420     8.6960   -22.2210 hc        17 MOL       0.040033
    109 H21          2.8520     7.2910   -21.3410 hc        17 MOL       0.040033
    110 H22          1.6210     6.6180   -23.3840 hc        17 MOL       0.040367
    111 H23          2.3140     8.0220   -24.2630 hc        17 MOL       0.040367
    112 H24          1.2720     9.5660   -22.6250 hc        17 MOL       0.039700
    113 H25          0.5740     8.1620   -21.7440 hc        17 MOL       0.039700
    114 H26         -0.6310     7.4740   -23.8030 hc        17 MOL       0.041700
    115 H27          0.0700     8.8730   -24.6810 hc        17 MOL       0.041700
    116 H28         -1.0340    10.4280   -23.0940 hc        17 MOL       0.040367
    117 H29         -1.7410     9.0290   -22.2140 hc        17 MOL       0.040367
    118 H30         -2.8570     8.2830   -24.3020 hc        17 MOL       0.054867
    119 H31         -2.1460     9.6770   -25.1790 hc        17 MOL       0.054867
    120 H32         -3.3440    11.2420   -23.6800 h1        17 MOL       0.027200
    121 H33         -4.0650     9.8470   -22.7970 h1        17 MOL       0.027200
    122 H34         -5.4780    11.9140   -24.4090 h1        17 MOL       0.040367
    123 H35         -6.2180    10.5350   -23.5200 h1        17 MOL       0.040367
    124 H36         -7.0010     9.5960   -25.6250 h1        17 MOL       0.042367
    125 H37         -6.2500    10.9770   -26.5150 h1        17 MOL       0.042367
    126 H38         -9.0530    10.3150   -26.2460 h1        17 MOL       0.042367
    127 H39         -8.2840    11.6790   -27.1430 h1        17 MOL       0.042367
    128 H40         -9.3170    13.2460   -25.6630 h1        17 MOL       0.042867
    129 H41        -10.0940    11.8820   -24.7600 h1        17 MOL       0.042867
    130 H42        -11.4220    13.8640   -26.5780 h1        17 MOL       0.044700
    131 H43        -12.2040    12.5160   -25.6570 h1        17 MOL       0.044700
    132 H44        -12.5670    11.3200   -27.7110 h1        17 MOL       0.044367
    133 H45        -11.7910    12.6580   -28.6390 h1        17 MOL       0.044367
    134 H46        -14.6000    11.7490   -28.7010 h1        17 MOL       0.039367
    135 H47        -13.8450    13.0730   -29.6730 h1        17 MOL       0.039367
    136 H48         14.3420     8.5620   -13.9100 hc        17 MOL       0.046200
    137 H49         14.0460     6.9840   -13.0930 hc        17 MOL       0.046200
    138 H50         12.1860     8.0130   -11.7990 hc        17 MOL       0.043200
    139 H51         12.4870     9.5800   -12.6140 hc        17 MOL       0.043200
    140 H52         14.7530     9.6710   -11.6010 hc        17 MOL       0.041033
    141 H53         14.4450     8.0990   -10.7810 hc        17 MOL       0.041033
    142 H54         12.4230     9.0720    -9.6950 hc        17 MOL       0.040700
    143 H55         12.7370    10.6350   -10.5150 hc        17 MOL       0.040700
    144 H56         14.8940    10.8410    -9.2980 hc        17 MOL       0.040033
    145 H57         14.5750     9.2760    -8.4720 hc        17 MOL       0.040033
    146 H58         12.4320    10.1910    -7.5860 hc        17 MOL       0.040367
    147 H59         12.7570    11.7480    -8.4150 hc        17 MOL       0.040367
    148 H60         14.8080    12.0500    -7.0480 hc        17 MOL       0.039700
    149 H61         14.4780    10.4920    -6.2110 hc        17 MOL       0.039700
    150 H62         12.2530    11.3650    -5.4830 hc        17 MOL       0.041700
    151 H63         12.5900    12.9140    -6.3220 hc        17 MOL       0.041700
    152 H64         14.5450    13.2970    -4.8370 hc        17 MOL       0.040367
    153 H65         14.2050    11.7480    -3.9900 hc        17 MOL       0.040367
    154 H66         11.9290    12.5820    -3.3970 hc        17 MOL       0.054867
    155 H67         12.2760    14.1240    -4.2460 hc        17 MOL       0.054867
    156 H68         14.1620    14.5640    -2.6870 h1        17 MOL       0.027200
    157 H69         13.8120    13.0210    -1.8290 h1        17 MOL       0.027200
    158 H70         13.7010    15.7490    -0.7440 h1        17 MOL       0.040367
    159 H71         13.3310    14.2190     0.1250 h1        17 MOL       0.040367
    160 H72         11.0440    14.9950     0.5150 h1        17 MOL       0.042367
    161 H73         11.4240    16.5290    -0.3640 h1        17 MOL       0.042367
    162 H74         10.8820    16.2140     2.5170 h1        17 MOL       0.042367
    163 H75         11.2820    17.7340     1.6250 h1        17 MOL       0.042367
    164 H76         13.3910    17.8410     2.7530 h1        17 MOL       0.042867
    165 H77         12.9900    16.3260     3.6510 h1        17 MOL       0.042867
    166 H78         13.2800    19.0370     4.7160 h1        17 MOL       0.044700
    167 H79         12.8640    17.5330     5.6270 h1        17 MOL       0.044700
    168 H80         10.6510    18.4000     6.0360 h1        17 MOL       0.044367
    169 H81         11.0700    19.8980     5.1220 h1        17 MOL       0.044367
    170 H82         10.5030    19.6670     8.0280 h1        17 MOL       0.039367
    171 H83         10.9260    21.1620     7.1050 h1        17 MOL       0.039367
    172 H84         17.4360     1.2140   -18.3950 hc        17 MOL       0.046200
    173 H85         18.0630     2.8810   -18.1360 hc        17 MOL       0.046200
    174 H86         19.8300     2.4880   -19.8300 hc        17 MOL       0.043200
    175 H87         19.2250     0.8180   -20.0820 hc        17 MOL       0.043200
    176 H88         19.7240     0.2900   -17.6990 hc        17 MOL       0.041033
    177 H89         20.3260     1.9660   -17.4600 hc        17 MOL       0.041033
    178 H90         22.0060     1.6230   -19.2640 hc        17 MOL       0.040700
    179 H91         21.4160    -0.0550   -19.4980 hc        17 MOL       0.040700
    180 H92         22.0670    -0.6040   -17.1560 hc        17 MOL       0.040033
    181 H93         22.6550     1.0790   -16.9300 hc        17 MOL       0.040033
    182 H94         24.2400     0.7770   -18.8300 hc        17 MOL       0.040367
    183 H95         23.6550    -0.9050   -19.0500 hc        17 MOL       0.040367
    184 H96         24.4190    -1.4680   -16.7470 hc        17 MOL       0.039700
    185 H97         25.0060     0.2170   -16.5330 hc        17 MOL       0.039700
    186 H98         26.5230    -0.0670   -18.5010 hc        17 MOL       0.041700
    187 H99         25.9340    -1.7490   -18.7080 hc        17 MOL       0.041700
    188 H100        26.7920    -2.3280   -16.4420 hc        17 MOL       0.040367
    189 H101        27.3860    -0.6450   -16.2380 hc        17 MOL       0.040367
    190 H102        28.8300    -0.9170   -18.2600 hc        17 MOL       0.054867
    191 H103        28.2310    -2.5990   -18.4560 hc        17 MOL       0.054867
    192 H104        29.1580    -3.1900   -16.2110 h1        17 MOL       0.027200
    193 H105        29.7640    -1.5100   -16.0190 h1        17 MOL       0.027200
    194 H106        31.3170    -3.9830   -16.0070 h1        17 MOL       0.040367
    195 H107        31.9530    -2.3090   -15.8460 h1        17 MOL       0.040367
    196 H108        33.3610    -2.6610   -17.9020 h1        17 MOL       0.042367
    197 H109        32.7130    -4.3310   -18.0500 h1        17 MOL       0.042367
    198 H110        35.5030    -3.5540   -17.7690 h1        17 MOL       0.042367
    199 H111        34.8220    -5.2150   -17.8840 h1        17 MOL       0.042367
    200 H112        35.8160    -5.7780   -15.6340 h1        17 MOL       0.042867
    201 H113        36.5050    -4.1240   -15.5230 h1        17 MOL       0.042867
    202 H114        37.8760    -6.6420   -15.3480 h1        17 MOL       0.044700
    203 H115        38.5960    -4.9990   -15.2730 h1        17 MOL       0.044700
    204 H116        40.1430    -5.6020   -17.2000 h1        17 MOL       0.044367
    205 H117        39.4100    -7.2430   -17.2620 h1        17 MOL       0.044367
    206 H118        42.2550    -6.6330   -16.8200 h1        17 MOL       0.039367
    207 H119        41.4850    -8.2540   -16.8290 h1        17 MOL       0.039367
    208 N3          44.0910    -8.5310   -15.7150 n         17 MOL      -0.571567
    209 H120        42.3440    -8.6690   -14.4500 h1        17 MOL       0.073867
    210 H121        43.1250    -7.0530   -14.4620 h1        17 MOL       0.073867
    211 C69         45.2390    -8.7830   -14.9840 c         17 MOL       0.658100
    212 H122        44.0400    -8.9670   -16.6430 hn        17 MOL       0.307833
    213 O17         45.3540    -8.4060   -13.8090 o         17 MOL      -0.604767
    214 C70         46.4660    -9.5900   -15.6070 c3        17 MOL      -0.159067
    215 C71         47.7510    -9.6760   -14.6060 c3        17 MOL       0.141400
    216 H123        46.7440    -9.1220   -16.5660 hc        17 MOL       0.076367
    217 H124        46.1120   -10.6060   -15.8500 hc        17 MOL       0.076367
    218 O18         48.9170   -10.4560   -15.1440 os        17 MOL      -0.438600
    219 H125        48.0900    -8.6530   -14.3860 h1        17 MOL       0.048700
    220 H126        47.4300   -10.1520   -13.6680 h1        17 MOL       0.048700
    221 C72         50.0010   -10.4350   -14.1520 c3        17 MOL       0.119067
    222 C73         51.2690   -11.2870   -14.6270 c3        17 MOL       0.129067
    223 H127        50.3050    -9.3890   -13.9860 h1        17 MOL       0.043867
    224 H128        49.6230   -10.8570   -13.2060 h1        17 MOL       0.043867
    225 O19         52.3430   -11.2540   -13.6400 os        17 MOL      -0.431933
    226 H129        50.9630   -12.3340   -14.7790 h1        17 MOL       0.047700
    227 H130        51.6530   -10.8810   -15.5760 h1        17 MOL       0.047700
    228 C74         53.4440   -12.0870   -14.1130 c3        17 MOL       0.117067
    229 C75         54.6820   -12.0770   -13.0930 c3        17 MOL       0.125733
    230 H131        53.0720   -13.1180   -14.2290 h1        17 MOL       0.045867
    231 H132        53.7760   -11.7110   -15.0940 h1        17 MOL       0.045867
    232 O20         55.7850   -12.9270   -13.5390 os        17 MOL      -0.424933
    233 H133        54.3440   -12.4420   -12.1090 h1        17 MOL       0.050200
    234 H134        55.0550   -11.0460   -12.9850 h1        17 MOL       0.050200
    235 C76         56.8580   -12.8340   -12.5530 c3        17 MOL       0.120067
    236 C77         58.0780   -13.7920   -12.8740 c3        17 MOL       0.114400
    237 H135        57.2120   -11.7930   -12.5100 h1        17 MOL       0.048033
    238 H136        56.4490   -13.1150   -11.5700 h1        17 MOL       0.048033
    239 O21         59.0600   -13.6560   -11.8610 os        17 MOL      -0.426933
    240 H137        57.7250   -14.8350   -12.8880 h1        17 MOL       0.053033
    241 H138        58.5240   -13.5420   -13.8520 h1        17 MOL       0.053033
    242 C78         60.0990   -14.6000   -12.0620 c3        17 MOL       0.106067
    243 C79         61.1070   -14.4260   -10.9460 c3        17 MOL       0.202133
    244 H139        59.6610   -15.6200   -12.0300 h1        17 MOL       0.044867
    245 H140        60.5890   -14.4350   -13.0310 h1        17 MOL       0.044867
    246 N4          62.1570   -15.4210   -11.0170 nh        17 MOL      -0.738933
    247 H141        61.5330   -13.4160   -10.9860 h1        17 MOL       0.078867
    248 H142        60.5840   -14.5510    -9.9830 h1        17 MOL       0.078867
    249 H143        61.9080   -16.2870   -11.4460 hn        17 MOL       0.454800
    250 N5          11.5690    21.4670     9.6550 n         17 MOL      -0.571567
    251 H144        13.0810    21.2750     8.2990 h1        17 MOL       0.073867
    252 H145        12.6680    19.8060     9.2120 h1        17 MOL       0.073867
    253 C80         12.2120    21.8740    10.7440 c         17 MOL       0.658100
    254 H146        10.6170    21.7130     9.5180 hn        17 MOL       0.307833
    255 O22         13.3960    21.5590    10.9060 o         17 MOL      -0.604767
    256 C81         11.5150    22.7040    11.7830 c3        17 MOL      -0.159067
    257 C82         12.4560    22.8960    12.9870 c3        17 MOL       0.141400
    258 H147        10.5780    22.2040    12.0750 hc        17 MOL       0.076367
    259 H148        11.2370    23.6750    11.3420 hc        17 MOL       0.076367
    260 O23         11.8340    23.6810    14.0220 os        17 MOL      -0.438600
    261 H149        13.3720    23.3990    12.6470 h1        17 MOL       0.048700
    262 H150        12.7160    21.9080    13.3920 h1        17 MOL       0.048700
    263 C83         12.7620    23.7850    15.0860 c3        17 MOL       0.119067
    264 C84         12.1560    24.5700    16.2370 c3        17 MOL       0.129067
    265 H151        13.6730    24.2920    14.7300 h1        17 MOL       0.043867
    266 H152        13.0210    22.7750    15.4380 h1        17 MOL       0.043867
    267 O24         13.1220    24.6180    17.2620 os        17 MOL      -0.431933
    268 H153        11.9000    25.5920    15.9110 h1        17 MOL       0.047700
    269 H154        11.2520    24.0600    16.6020 h1        17 MOL       0.047700
    270 C85         12.6030    25.2880    18.3420 c3        17 MOL       0.117067
    271 C86         13.6670    25.3080    19.3920 c3        17 MOL       0.125733
    272 H155        11.7090    24.7670    18.7160 h1        17 MOL       0.045867
    273 H156        12.3400    26.3180    18.0540 h1        17 MOL       0.045867
    274 O25         13.1320    25.9890    20.4550 os        17 MOL      -0.424933
    275 H157        14.5530    25.8390    19.0130 h1        17 MOL       0.050200
    276 H158        13.9410    24.2860    19.6910 h1        17 MOL       0.050200
    277 C87         14.0870    26.1390    21.4690 c3        17 MOL       0.120067
    278 C88         13.4110    26.9640    22.4980 c3        17 MOL       0.114400
    279 H159        14.9620    26.6800    21.0760 h1        17 MOL       0.048033
    280 H160        14.3960    25.1620    21.8730 h1        17 MOL       0.048033
    281 O26         14.3280    27.2690    23.5670 os        17 MOL      -0.426933
    282 H161        12.5250    26.4630    22.8930 h1        17 MOL       0.053033
    283 H162        13.1070    27.8910    22.0010 h1        17 MOL       0.053033
    284 C89         13.7460    28.2890    24.4050 c3        17 MOL       0.106067
    285 C90         14.7020    28.7850    25.5620 c3        17 MOL       0.202133
    286 H163        13.5100    29.1510    23.7680 h1        17 MOL       0.044867
    287 H164        12.8140    27.8970    24.8430 h1        17 MOL       0.044867
    288 N6          13.9780    29.8470    26.3090 nh        17 MOL      -0.738933
    289 H165        15.6250    29.1750    25.1330 h1        17 MOL       0.078867
    290 H166        14.9280    27.9440    26.2310 h1        17 MOL       0.078867
    291 H167        13.4420    29.5310    27.0820 hn        17 MOL       0.454800
    292 N7         -16.4340    13.4520   -29.4410 n         17 MOL      -0.571567
    293 H168       -15.1970    14.7240   -28.4420 h1        17 MOL       0.073867
    294 H169       -15.9220    13.4150   -27.4790 h1        17 MOL       0.073867
    295 C91        -17.5380    14.1820   -29.4370 c         17 MOL       0.658100
    296 H170       -16.2950    12.7540   -30.1370 hn        17 MOL       0.307833
    297 O27        -17.7010    15.0420   -28.5650 o         17 MOL      -0.604767
    298 C92        -18.5950    13.9570   -30.4630 c3        17 MOL      -0.159067
    299 C93        -19.8160    14.7890   -30.1020 c3        17 MOL       0.141400
    300 H171       -18.8330    12.8840   -30.5060 hc        17 MOL       0.076367
    301 H172       -18.2070    14.2420   -31.4540 hc        17 MOL       0.076367
    302 O28        -20.8520    14.5670   -31.0650 os        17 MOL      -0.438600
    303 H173       -19.5350    15.8520   -30.0880 h1        17 MOL       0.048700
    304 H174       -20.1700    14.4930   -29.1050 h1        17 MOL       0.048700
    305 C94        -21.9340    15.3370   -30.7280 c3        17 MOL       0.119067
    306 C95        -22.9830    15.0490   -31.7000 c3        17 MOL       0.129067
    307 H175       -21.6710    16.4030   -30.7730 h1        17 MOL       0.043867
    308 H176       -22.2910    15.0830   -29.7210 h1        17 MOL       0.043867
    309 O29        -24.0170    15.8590   -31.3240 os        17 MOL      -0.431933
    310 H177       -22.6390    15.3020   -32.7160 h1        17 MOL       0.047700
    311 H178       -23.2750    13.9880   -31.6520 h1        17 MOL       0.047700
    312 C96        -25.0190    15.6680   -32.1550 c3        17 MOL       0.117067
    313 C97        -26.0200    16.6160   -31.7800 c3        17 MOL       0.125733
    314 H179       -24.7000    15.8730   -33.1890 h1        17 MOL       0.045867
    315 H180       -25.4100    14.6440   -32.0800 h1        17 MOL       0.045867
    316 O30        -26.9070    16.3110   -32.7120 os        17 MOL      -0.424933
    317 H181       -25.6320    17.6390   -31.8970 h1        17 MOL       0.050200
    318 H182       -26.4000    16.4510   -30.7620 h1        17 MOL       0.050200
    319 C98        -27.9610    17.1270   -32.8040 c3        17 MOL       0.120067
    320 C99        -28.5840    16.5100   -33.9350 c3        17 MOL       0.114400
    321 H183       -27.6500    18.1530   -33.0520 h1        17 MOL       0.048033
    322 H184       -28.6060    17.1150   -31.9130 h1        17 MOL       0.048033
    323 O31        -29.6250    17.2970   -34.2580 os        17 MOL      -0.426933
    324 H185       -27.8550    16.4960   -34.7540 h1        17 MOL       0.053033
    325 H186       -28.8930    15.4840   -33.6900 h1        17 MOL       0.053033
    326 C100       -30.2510    16.8850   -35.3340 c3        17 MOL       0.106067
    327 C101       -31.1970    18.0040   -35.6190 c3        17 MOL       0.202133
    328 H187       -30.7760    15.9280   -35.1620 h1        17 MOL       0.044867
    329 H188       -29.5420    16.7820   -36.1670 h1        17 MOL       0.044867
    330 N8         -31.8010    17.6090   -36.7740 nh        17 MOL      -0.738933
    331 H189       -30.6340    18.9290   -35.7460 h1        17 MOL       0.078867
    332 H190       -31.9140    18.0830   -34.7870 h1        17 MOL       0.078867
    333 H191       -32.3230    16.7330   -36.7220 hn        17 MOL       0.454800
    334 C102        63.4840   -15.2910   -10.4900 ca        17 MOL       0.305600
    335 C103        64.2400   -16.5110   -10.5540 ca        17 MOL      -0.238667
    336 H192        63.8150   -17.3730   -10.9510 ha        17 MOL       0.157667
    337 C104        65.4660   -16.5510   -10.0870 ca        17 MOL       0.009000
    338 H193        66.0250   -17.4440   -10.1120 ha        17 MOL       0.178000
    339 C105        66.0340   -15.3750    -9.5600 ca        17 MOL      -0.256200
    340 C106        65.4100   -14.2530    -9.5180 ca        17 MOL       0.039333
    341 H194        65.8830   -13.3880    -9.1040 ha        17 MOL       0.201000
    342 C107        64.0930   -14.1830    -9.9630 ca        17 MOL      -0.283867
    343 N9          67.1770   -15.4670    -9.1130 no        17 MOL       0.327200
    344 O32         67.8900   -14.4290    -8.7140 o         17 MOL      -0.208000
    345 O33         67.6390   -16.5290    -9.0660 o         17 MOL      -0.208000
    346 N10         63.5720   -12.9950    -9.7580 no        17 MOL       0.323200
    347 O34         62.4430   -12.9020    -9.1630 o         17 MOL      -0.210167
    348 O35         64.2390   -12.0360    -9.8320 o         17 MOL      -0.210167
    349 C108       -31.4010    18.0890   -38.0130 ca        17 MOL       0.305600
    350 C109       -31.3090    17.1650   -39.1370 ca        17 MOL      -0.283867
    351 C110       -30.9690    17.5640   -40.3220 ca        17 MOL       0.039333
    352 H195       -30.8880    16.8780   -41.1330 ha        17 MOL       0.201000
    353 C111       -30.6710    18.8640   -40.4840 ca        17 MOL      -0.256200
    354 C112       -30.7070    19.7540   -39.5070 ca        17 MOL       0.009000
    355 H196       -30.4490    20.7550   -39.7010 ha        17 MOL       0.178000
    356 C113       -31.0900    19.3580   -38.2090 ca        17 MOL      -0.238667
    357 H197       -31.1380    20.0580   -37.4400 ha        17 MOL       0.157667
    358 N11        -30.3200    19.2310   -41.5820 no        17 MOL       0.327200
    359 O36        -29.9800    20.4470   -41.6970 o         17 MOL      -0.208000
    360 O37        -30.2740    18.5150   -42.5080 o         17 MOL      -0.208000
    361 N12        -31.4960    15.9110   -38.9810 no        17 MOL       0.323200
    362 O38        -31.5970    15.4460   -37.8080 o         17 MOL      -0.210167
    363 O39        -31.4510    15.1740   -39.8770 o         17 MOL      -0.210167
    364 C114        13.9110    31.2570    26.0070 ca        17 MOL       0.305600
    365 C115        14.8030    32.1270    25.1020 ca        17 MOL      -0.283867
    366 C116        14.5880    33.4130    25.0140 ca        17 MOL       0.039333
    367 H198        15.1940    34.0280    24.3860 ha        17 MOL       0.201000
    368 C117        13.5410    33.9440    25.6760 ca        17 MOL      -0.256200
    369 C118        12.7380    33.2470    26.4580 ca        17 MOL       0.009000
    370 H199        11.9330    33.7230    26.9330 ha        17 MOL       0.178000
    371 C119        12.9410    31.8730    26.6470 ca        17 MOL      -0.238667
    372 H200        12.3110    31.3380    27.2790 ha        17 MOL       0.157667
    373 N13         13.2820    35.1280    25.5170 no        17 MOL       0.327200
    374 O40         12.1900    35.5330    26.0120 o         17 MOL      -0.208000
    375 O41         13.9610    35.8760    24.9210 o         17 MOL      -0.208000
    376 N14         15.7770    31.7220    24.3590 no        17 MOL       0.323200
    377 O42         16.7140    32.5360    24.0040 o         17 MOL      -0.210167
    378 O43         15.7090    30.6650    23.8610 o         17 MOL      -0.210167
@<TRIPOS>BOND
     1     1    10 1   
     2     1    13 1   
     3     1    91 1   
     4     2    11 1   
     5     2    12 1   
     6     2    92 1   
     7     3    14 1   
     8     3    15 1   
     9     3    97 1   
    10     4     5 ar  
    11     4     9 ar  
    12     4    15 1   
    13     5     6 ar  
    14     5    88 1   
    15     6     7 ar  
    16     6    11 1   
    17     7     8 ar  
    18     7    89 1   
    19     8     9 ar  
    20     8    10 1   
    21     9    90 1   
    22    10    73 2   
    23    11    74 2   
    24    12    35 1   
    25    12    93 1   
    26    12    94 1   
    27    13    54 1   
    28    13    95 1   
    29    13    96 1   
    30    14    16 1   
    31    14    98 1   
    32    14    99 1   
    33    15    75 2   
    34    16    17 1   
    35    16   100 1   
    36    16   101 1   
    37    17    18 1   
    38    17   102 1   
    39    17   103 1   
    40    18    19 1   
    41    18   104 1   
    42    18   105 1   
    43    19    20 1   
    44    19   106 1   
    45    19   107 1   
    46    20    21 1   
    47    20   108 1   
    48    20   109 1   
    49    21    22 1   
    50    21   110 1   
    51    21   111 1   
    52    22    23 1   
    53    22   112 1   
    54    22   113 1   
    55    23    24 1   
    56    23   114 1   
    57    23   115 1   
    58    24    25 1   
    59    24   116 1   
    60    24   117 1   
    61    25    26 1   
    62    25   118 1   
    63    25   119 1   
    64    26    76 1   
    65    26   120 1   
    66    26   121 1   
    67    27    28 1   
    68    27    76 1   
    69    27   122 1   
    70    27   123 1   
    71    28    77 1   
    72    28   124 1   
    73    28   125 1   
    74    29    30 1   
    75    29    77 1   
    76    29   126 1   
    77    29   127 1   
    78    30    78 1   
    79    30   128 1   
    80    30   129 1   
    81    31    32 1   
    82    31    78 1   
    83    31   130 1   
    84    31   131 1   
    85    32    79 1   
    86    32   132 1   
    87    32   133 1   
    88    33    34 1   
    89    33    79 1   
    90    33   134 1   
    91    33   135 1   
    92    34   292 1   
    93    34   293 1   
    94    34   294 1   
    95    35    36 1   
    96    35   136 1   
    97    35   137 1   
    98    36    37 1   
    99    36   138 1   
   100    36   139 1   
   101    37    38 1   
   102    37   140 1   
   103    37   141 1   
   104    38    39 1   
   105    38   142 1   
   106    38   143 1   
   107    39    40 1   
   108    39   144 1   
   109    39   145 1   
   110    40    41 1   
   111    40   146 1   
   112    40   147 1   
   113    41    42 1   
   114    41   148 1   
   115    41   149 1   
   116    42    43 1   
   117    42   150 1   
   118    42   151 1   
   119    43    44 1   
   120    43   152 1   
   121    43   153 1   
   122    44    45 1   
   123    44   154 1   
   124    44   155 1   
   125    45    80 1   
   126    45   156 1   
   127    45   157 1   
   128    46    47 1   
   129    46    80 1   
   130    46   158 1   
   131    46   159 1   
   132    47    81 1   
   133    47   160 1   
   134    47   161 1   
   135    48    49 1   
   136    48    81 1   
   137    48   162 1   
   138    48   163 1   
   139    49    82 1   
   140    49   164 1   
   141    49   165 1   
   142    50    51 1   
   143    50    82 1   
   144    50   166 1   
   145    50   167 1   
   146    51    83 1   
   147    51   168 1   
   148    51   169 1   
   149    52    53 1   
   150    52    83 1   
   151    52   170 1   
   152    52   171 1   
   153    53   250 1   
   154    53   251 1   
   155    53   252 1   
   156    54    55 1   
   157    54   172 1   
   158    54   173 1   
   159    55    56 1   
   160    55   174 1   
   161    55   175 1   
   162    56    57 1   
   163    56   176 1   
   164    56   177 1   
   165    57    58 1   
   166    57   178 1   
   167    57   179 1   
   168    58    59 1   
   169    58   180 1   
   170    58   181 1   
   171    59    60 1   
   172    59   182 1   
   173    59   183 1   
   174    60    61 1   
   175    60   184 1   
   176    60   185 1   
   177    61    62 1   
   178    61   186 1   
   179    61   187 1   
   180    62    63 1   
   181    62   188 1   
   182    62   189 1   
   183    63    64 1   
   184    63   190 1   
   185    63   191 1   
   186    64    84 1   
   187    64   192 1   
   188    64   193 1   
   189    65    66 1   
   190    65    84 1   
   191    65   194 1   
   192    65   195 1   
   193    66    85 1   
   194    66   196 1   
   195    66   197 1   
   196    67    68 1   
   197    67    85 1   
   198    67   198 1   
   199    67   199 1   
   200    68    86 1   
   201    68   200 1   
   202    68   201 1   
   203    69    70 1   
   204    69    86 1   
   205    69   202 1   
   206    69   203 1   
   207    70    87 1   
   208    70   204 1   
   209    70   205 1   
   210    71    72 1   
   211    71    87 1   
   212    71   206 1   
   213    71   207 1   
   214    72   208 1   
   215    72   209 1   
   216    72   210 1   
   217   208   211 1   
   218   208   212 1   
   219   211   213 2   
   220   211   214 1   
   221   214   215 1   
   222   214   216 1   
   223   214   217 1   
   224   215   218 1   
   225   215   219 1   
   226   215   220 1   
   227   218   221 1   
   228   221   222 1   
   229   221   223 1   
   230   221   224 1   
   231   222   225 1   
   232   222   226 1   
   233   222   227 1   
   234   225   228 1   
   235   228   229 1   
   236   228   230 1   
   237   228   231 1   
   238   229   232 1   
   239   229   233 1   
   240   229   234 1   
   241   232   235 1   
   242   235   236 1   
   243   235   237 1   
   244   235   238 1   
   245   236   239 1   
   246   236   240 1   
   247   236   241 1   
   248   239   242 1   
   249   242   243 1   
   250   242   244 1   
   251   242   245 1   
   252   243   246 1   
   253   243   247 1   
   254   243   248 1   
   255   246   249 1   
   256   246   334 1   
   257   250   253 1   
   258   250   254 1   
   259   253   255 2   
   260   253   256 1   
   261   256   257 1   
   262   256   258 1   
   263   256   259 1   
   264   257   260 1   
   265   257   261 1   
   266   257   262 1   
   267   260   263 1   
   268   263   264 1   
   269   263   265 1   
   270   263   266 1   
   271   264   267 1   
   272   264   268 1   
   273   264   269 1   
   274   267   270 1   
   275   270   271 1   
   276   270   272 1   
   277   270   273 1   
   278   271   274 1   
   279   271   275 1   
   280   271   276 1   
   281   274   277 1   
   282   277   278 1   
   283   277   279 1   
   284   277   280 1   
   285   278   281 1   
   286   278   282 1   
   287   278   283 1   
   288   281   284 1   
   289   284   285 1   
   290   284   286 1   
   291   284   287 1   
   292   285   288 1   
   293   285   289 1   
   294   285   290 1   
   295   288   291 1   
   296   288   364 1   
   297   292   295 1   
   298   292   296 1   
   299   295   297 2   
   300   295   298 1   
   301   298   299 1   
   302   298   300 1   
   303   298   301 1   
   304   299   302 1   
   305   299   303 1   
   306   299   304 1   
   307   302   305 1   
   308   305   306 1   
   309   305   307 1   
   310   305   308 1   
   311   306   309 1   
   312   306   310 1   
   313   306   311 1   
   314   309   312 1   
   315   312   313 1   
   316   312   314 1   
   317   312   315 1   
   318   313   316 1   
   319   313   317 1   
   320   313   318 1   
   321   316   319 1   
   322   319   320 1   
   323   319   321 1   
   324   319   322 1   
   325   320   323 1   
   326   320   324 1   
   327   320   325 1   
   328   323   326 1   
   329   326   327 1   
   330   326   328 1   
   331   326   329 1   
   332   327   330 1   
   333   327   331 1   
   334   327   332 1   
   335   330   333 1   
   336   330   349 1   
   337   334   335 ar  
   338   334   342 ar  
   339   335   336 1   
   340   335   337 ar  
   341   337   338 1   
   342   337   339 ar  
   343   339   340 ar  
   344   339   343 1   
   345   340   341 1   
   346   340   342 ar  
   347   342   346 1   
   348   343   344 1   
   349   343   345 1   
   350   346   347 1   
   351   346   348 1   
   352   349   350 ar  
   353   349   356 ar  
   354   350   351 ar  
   355   350   361 1   
   356   351   352 1   
   357   351   353 ar  
   358   353   354 ar  
   359   353   358 1   
   360   354   355 1   
   361   354   356 ar  
   362   356   357 1   
   363   358   359 1   
   364   358   360 1   
   365   361   362 1   
   366   361   363 1   
   367   364   365 ar  
   368   364   371 ar  
   369   365   366 ar  
   370   365   376 1   
   371   366   367 1   
   372   366   368 ar  
   373   368   369 ar  
   374   368   373 1   
   375   369   370 1   
   376   369   371 ar  
   377   371   372 1   
   378   373   374 1   
   379   373   375 1   
   380   376   377 1   
   381   376   378 1   
@<TRIPOS>SUBSTRUCTURE
     1 MOL         1 TEMP              0 ****  ****    0 ROOT
