@<TRIPOS>MOLECULE
MOL
  378   381     1     0     0
SMALL
bcc


@<TRIPOS>ATOM
      1 N            6.3860   -15.6940    -4.3470 n         10 MOL      -0.564567
      2 N1           4.4680   -12.9770     1.0650 n         10 MOL      -0.564567
      3 N2           0.6040   -12.0770    -2.1930 n         10 MOL      -0.564567
      4 C            2.3410   -13.7250    -2.5900 ca        10 MOL      -0.153267
      5 C1           2.9040   -13.6180    -1.3090 ca        10 MOL      -0.039667
      6 C2           4.1600   -14.1750    -1.0170 ca        10 MOL      -0.153267
      7 C3           4.8490   -14.8550    -2.0310 ca        10 MOL      -0.039667
      8 C4           4.3130   -14.9720    -3.3230 ca        10 MOL      -0.153267
      9 C5           3.0550   -14.4110    -3.5820 ca        10 MOL      -0.039667
     10 C6           5.0500   -15.6950    -4.4270 c         10 MOL       0.668367
     11 C7           4.7580   -14.0800     0.3660 c         10 MOL       0.668367
     12 C8           5.0570   -12.8520     2.3730 c3        10 MOL       0.084333
     13 C9           7.1430   -16.3310    -5.3700 c3        10 MOL       0.084333
     14 C10         -0.6620   -11.4570    -2.4380 c3        10 MOL       0.084333
     15 C11          0.9870   -13.1380    -2.9140 c         10 MOL       0.668367
     16 C12          8.3010   -17.1420    -4.8010 c3        10 MOL      -0.104067
     17 C13          8.9960   -17.7850    -5.9960 c3        10 MOL      -0.077733
     18 C14         10.1700   -18.6500    -5.5540 c3        10 MOL      -0.078400
     19 C15         10.7580   -19.2670    -6.8200 c3        10 MOL      -0.079400
     20 C16         11.9350   -20.1790    -6.4910 c3        10 MOL      -0.078733
     21 C17         12.4180   -20.7670    -7.8130 c3        10 MOL      -0.079400
     22 C18         13.5860   -21.7190    -7.5880 c3        10 MOL      -0.079400
     23 C19         13.9760   -22.2800    -8.9550 c3        10 MOL      -0.078400
     24 C20         15.1320   -23.2680    -8.8280 c3        10 MOL      -0.078400
     25 C21         15.4330   -23.7960   -10.2300 c3        10 MOL      -0.084400
     26 C22         16.5720   -24.8110   -10.1850 c3        10 MOL       0.133400
     27 C23         17.7790   -26.2160   -11.5470 c3        10 MOL       0.128400
     28 C24         17.8990   -26.6550   -12.9380 c3        10 MOL       0.130400
     29 C25         19.0890   -28.1050   -14.0740 c3        10 MOL       0.130400
     30 C26         20.1120   -29.0460   -13.8280 c3        10 MOL       0.129400
     31 C27         21.2100   -30.4930   -15.0640 c3        10 MOL       0.130400
     32 C28         21.1790   -30.8710   -16.4400 c3        10 MOL       0.128400
     33 C29         22.2110   -32.3170   -17.7910 c3        10 MOL       0.105400
     34 C30         23.2650   -33.3470   -17.6720 c3        10 MOL       0.084667
     35 C31          4.4080   -11.8140     3.2890 c3        10 MOL      -0.104067
     36 C32          5.2170   -11.8890     4.5860 c3        10 MOL      -0.077733
     37 C33          4.7140   -10.9250     5.6560 c3        10 MOL      -0.078400
     38 C34          5.6300   -11.1440     6.8660 c3        10 MOL      -0.079400
     39 C35          5.2550   -10.2550     8.0530 c3        10 MOL      -0.078733
     40 C36          6.2520   -10.5950     9.1670 c3        10 MOL      -0.079400
     41 C37          5.9890    -9.7820    10.4340 c3        10 MOL      -0.079400
     42 C38          7.0460   -10.2150    11.4620 c3        10 MOL      -0.078400
     43 C39          6.8810    -9.4700    12.7910 c3        10 MOL      -0.078400
     44 C40          7.9820    -9.9760    13.7360 c3        10 MOL      -0.084400
     45 C41          7.8920    -9.2880    15.1050 c3        10 MOL       0.133400
     46 C42          8.9110    -9.2290    17.1810 c3        10 MOL       0.128400
     47 C43         10.0290    -9.7970    17.9530 c3        10 MOL       0.130400
     48 C44         10.8860    -9.5690    19.9800 c3        10 MOL       0.130400
     49 C45         10.6020    -8.8290    21.1540 c3        10 MOL       0.129400
     50 C46         11.4800    -8.5860    23.1490 c3        10 MOL       0.130400
     51 C47         12.6220    -9.0820    23.8620 c3        10 MOL       0.128400
     52 C48         13.6090    -8.7910    25.8740 c3        10 MOL       0.105400
     53 C49         13.3740    -7.9970    27.1200 c3        10 MOL       0.084667
     54 C50         -1.0290   -10.5520    -1.2610 c3        10 MOL      -0.104067
     55 C51         -2.3720    -9.8920    -1.5380 c3        10 MOL      -0.077733
     56 C52         -2.7270    -8.9910    -0.3560 c3        10 MOL      -0.078400
     57 C53         -4.0680    -8.3220    -0.6330 c3        10 MOL      -0.079400
     58 C54         -4.4370    -7.4150     0.5380 c3        10 MOL      -0.078733
     59 C55         -5.7750    -6.7590     0.2190 c3        10 MOL      -0.079400
     60 C56         -6.1920    -5.8320     1.3570 c3        10 MOL      -0.079400
     61 C57         -7.5280    -5.2020     0.9660 c3        10 MOL      -0.078400
     62 C58         -8.0210    -4.2450     2.0520 c3        10 MOL      -0.078400
     63 C59         -9.3490    -3.6590     1.5680 c3        10 MOL      -0.084400
     64 C60         -9.9210    -2.6750     2.5910 c3        10 MOL       0.133400
     65 C61        -11.7250    -1.2580     2.9160 c3        10 MOL       0.128400
     66 C62        -12.9580    -0.7970     2.2610 c3        10 MOL       0.130400
     67 C63        -14.6100     0.5990     2.6260 c3        10 MOL       0.130400
     68 C64        -15.0540     1.5180     3.6110 c3        10 MOL       0.129400
     69 C65        -16.7810     2.8940     3.7940 c3        10 MOL       0.130400
     70 C66        -17.9170     3.2180     2.9520 c3        10 MOL       0.128400
     71 C67        -19.7610     4.5150     2.8500 c3        10 MOL       0.105400
     72 C68        -20.5240     5.5580     3.6300 c3        10 MOL       0.084667
     73 O            4.4410   -16.2250    -5.3570 o         10 MOL      -0.593433
     74 O1           5.4840   -14.9730     0.8070 o         10 MOL      -0.593433
     75 O2           0.2870   -13.6120    -3.8110 o         10 MOL      -0.593433
     76 O3          16.7840   -25.2770   -11.5170 os        10 MOL      -0.428600
     77 O4          18.8870   -27.5890   -12.8860 os        10 MOL      -0.430600
     78 O5          20.2760   -29.5480   -15.0350 os        10 MOL      -0.430600
     79 O6          22.0990   -31.8200   -16.5120 os        10 MOL      -0.425600
     80 O8           8.9460    -9.8030    15.9300 os        10 MOL      -0.428600
     81 O9           9.9230    -9.1800    19.1690 os        10 MOL      -0.430600
     82 O10         11.5780    -9.2050    21.9660 os        10 MOL      -0.430600
     83 O11         12.5430    -8.4590    25.0420 os        10 MOL      -0.425600
     84 O13        -11.1470    -2.1690     2.0580 os        10 MOL      -0.428600
     85 O14        -13.4980     0.1080     3.1340 os        10 MOL      -0.430600
     86 O15        -16.1550     1.9720     3.0390 os        10 MOL      -0.430600
     87 O16        -18.6340     4.1530     3.6140 os        10 MOL      -0.425600
     88 H253         2.3860   -13.1210    -0.5680 ha        10 MOL       0.160333
     89 H254         5.7670   -15.2770    -1.8240 ha        10 MOL       0.160333
     90 H255         2.6450   -14.5050    -4.5240 ha        10 MOL       0.160333
     91 H250         6.7900   -15.2490    -3.5670 hn        10 MOL       0.305500
     92 H251         3.9250   -12.2860     0.6210 hn        10 MOL       0.305500
     93 H5           6.1140   -12.5850     2.2380 h1        10 MOL       0.064200
     94 H6           5.0230   -13.8400     2.8540 h1        10 MOL       0.064200
     95 H7           6.4740   -16.9880    -5.9470 h1        10 MOL       0.064200
     96 H8           7.5560   -15.5640    -6.0400 h1        10 MOL       0.064200
     97 H252         1.2230   -11.7440    -1.5040 hn        10 MOL       0.305500
     98 H10         -1.4240   -12.2360    -2.5860 h1        10 MOL       0.064200
     99 H11         -0.5940   -10.8590    -3.3570 h1        10 MOL       0.064200
    100 H12          8.9980   -16.4890    -4.2560 hc        10 MOL       0.044700
    101 H13          7.9180   -17.9240    -4.1280 hc        10 MOL       0.044700
    102 H14          9.3560   -16.9990    -6.6740 hc        10 MOL       0.043867
    103 H15          8.2690   -18.4180    -6.5260 hc        10 MOL       0.043867
    104 H16          9.8150   -19.4450    -4.8830 hc        10 MOL       0.040700
    105 H17         10.9220   -18.0370    -5.0380 hc        10 MOL       0.040700
    106 H18         11.0950   -18.4680    -7.4950 hc        10 MOL       0.041033
    107 H19          9.9790   -19.8610    -7.3190 hc        10 MOL       0.041033
    108 H20         11.6050   -20.9880    -5.8250 hc        10 MOL       0.039867
    109 H21         12.7400   -19.6060    -6.0100 hc        10 MOL       0.039867
    110 H22         12.7330   -19.9540    -8.4830 hc        10 MOL       0.040533
    111 H23         11.5910   -21.3220    -8.2780 hc        10 MOL       0.040533
    112 H24         13.2730   -22.5380    -6.9250 hc        10 MOL       0.039867
    113 H25         14.4330   -21.1800    -7.1380 hc        10 MOL       0.039867
    114 H26         14.2730   -21.4550    -9.6190 hc        10 MOL       0.041867
    115 H27         13.1090   -22.8000    -9.3870 hc        10 MOL       0.041867
    116 H28         14.8380   -24.1010    -8.1740 hc        10 MOL       0.040200
    117 H29         16.0160   -22.7640    -8.4130 hc        10 MOL       0.040200
    118 H30         15.7140   -22.9580   -10.8840 hc        10 MOL       0.055033
    119 H31         14.5330   -24.2850   -10.6290 hc        10 MOL       0.055033
    120 H32         16.2890   -25.6540    -9.5370 h1        10 MOL       0.027700
    121 H33         17.4860   -24.3360    -9.7990 h1        10 MOL       0.027700
    122 H34         17.5130   -27.0760   -10.9160 h1        10 MOL       0.039700
    123 H35         18.7310   -25.7840   -11.2090 h1        10 MOL       0.039700
    124 H36         18.1800   -25.8140   -13.5920 h1        10 MOL       0.042200
    125 H37         16.9530   -27.1040   -13.2800 h1        10 MOL       0.042200
    126 H38         19.4290   -27.3460   -14.7930 h1        10 MOL       0.042033
    127 H39         18.1890   -28.6130   -14.4490 h1        10 MOL       0.042033
    128 H40         19.7720   -29.8080   -13.1120 h1        10 MOL       0.042533
    129 H41         21.0210   -28.5480   -13.4620 h1        10 MOL       0.042533
    130 H42         20.9450   -31.3470   -14.4220 h1        10 MOL       0.043033
    131 H43         22.2000   -30.0960   -14.7900 h1        10 MOL       0.043033
    132 H44         21.4370   -30.0140   -17.0760 h1        10 MOL       0.042533
    133 H45         20.1850   -31.2580   -16.7040 h1        10 MOL       0.042533
    134 H46         22.5190   -31.5260   -18.4930 h1        10 MOL       0.033367
    135 H47         21.2620   -32.7700   -18.1190 h1        10 MOL       0.033367
    136 H51          3.3570   -12.0710     3.4790 hc        10 MOL       0.044700
    137 H52          4.4780   -10.8070     2.8510 hc        10 MOL       0.044700
    138 H53          6.2670   -11.6530     4.3610 hc        10 MOL       0.043867
    139 H54          5.1540   -12.9130     4.9790 hc        10 MOL       0.043867
    140 H55          3.6730   -11.1600     5.9170 hc        10 MOL       0.040700
    141 H56          4.7860    -9.8880     5.3010 hc        10 MOL       0.040700
    142 H57          6.6660   -10.9250     6.5710 hc        10 MOL       0.041033
    143 H58          5.5570   -12.1960     7.1780 hc        10 MOL       0.041033
    144 H59          4.2290   -10.4760     8.3820 hc        10 MOL       0.039867
    145 H60          5.3390    -9.1940     7.7780 hc        10 MOL       0.039867
    146 H61          7.2700   -10.3850     8.8100 hc        10 MOL       0.040533
    147 H62          6.1660   -11.6640     9.4070 hc        10 MOL       0.040533
    148 H63          4.9790    -9.9970    10.8140 hc        10 MOL       0.039867
    149 H64          6.0840    -8.7070    10.2190 hc        10 MOL       0.039867
    150 H65          8.0460   -10.0060    11.0560 hc        10 MOL       0.041867
    151 H66          6.9460   -11.2940    11.6440 hc        10 MOL       0.041867
    152 H67          5.8910    -9.6840    13.2190 hc        10 MOL       0.040200
    153 H68          6.9910    -8.3880    12.6330 hc        10 MOL       0.040200
    154 H69          8.9640    -9.7650    13.2880 hc        10 MOL       0.055033
    155 H70          7.8690   -11.0620    13.8710 hc        10 MOL       0.055033
    156 H71          6.9170    -9.5040    15.5670 h1        10 MOL       0.027700
    157 H72          8.0110    -8.2000    14.9840 h1        10 MOL       0.027700
    158 H73          7.9620    -9.4610    17.6840 h1        10 MOL       0.039700
    159 H74          9.0360    -8.1400    17.1070 h1        10 MOL       0.039700
    160 H75         10.9900    -9.5550    17.4710 h1        10 MOL       0.042200
    161 H76          9.9190   -10.8890    18.0540 h1        10 MOL       0.042200
    162 H77         11.8750    -9.2980    19.5870 h1        10 MOL       0.042033
    163 H78         10.8350   -10.6480    20.1830 h1        10 MOL       0.042033
    164 H79          9.6140    -9.1000    21.5530 h1        10 MOL       0.042533
    165 H80         10.6480    -7.7500    20.9440 h1        10 MOL       0.042533
    166 H81         10.5480    -8.8570    23.6680 h1        10 MOL       0.043033
    167 H82         11.5500    -7.4940    23.0330 h1        10 MOL       0.043033
    168 H83         13.5440    -8.8070    23.3300 h1        10 MOL       0.042533
    169 H84         12.5600   -10.1730    23.9780 h1        10 MOL       0.042533
    170 H85         14.5640    -8.4980    25.4100 h1        10 MOL       0.033367
    171 H86         13.6100    -9.8700    26.0950 h1        10 MOL       0.033367
    172 H90         -0.2600    -9.7760    -1.1380 hc        10 MOL       0.044700
    173 H91         -1.0990   -11.1510    -0.3420 hc        10 MOL       0.044700
    174 H92         -3.1450   -10.6630    -1.6610 hc        10 MOL       0.043867
    175 H93         -2.3030    -9.2900    -2.4550 hc        10 MOL       0.043867
    176 H94         -1.9500    -8.2230    -0.2330 hc        10 MOL       0.040700
    177 H95         -2.7950    -9.5950     0.5600 hc        10 MOL       0.040700
    178 H96         -4.8440    -9.0900    -0.7600 hc        10 MOL       0.041033
    179 H97         -3.9940    -7.7200    -1.5500 hc        10 MOL       0.041033
    180 H98         -3.6660    -6.6420     0.6670 hc        10 MOL       0.039867
    181 H99         -4.5220    -8.0090     1.4590 hc        10 MOL       0.039867
    182 H100        -6.5400    -7.5360     0.0820 hc        10 MOL       0.040533
    183 H101        -5.6780    -6.1740    -0.7070 hc        10 MOL       0.040533
    184 H102        -5.4330    -5.0470     1.4950 hc        10 MOL       0.039867
    185 H103        -6.3020    -6.4080     2.2880 hc        10 MOL       0.039867
    186 H104        -8.2740    -5.9960     0.8180 hc        10 MOL       0.041867
    187 H105        -7.4000    -4.6430     0.0280 hc        10 MOL       0.041867
    188 H106        -7.2890    -3.4390     2.2010 hc        10 MOL       0.040200
    189 H107        -8.1710    -4.7900     2.9950 hc        10 MOL       0.040200
    190 H108       -10.0680    -4.4760     1.4080 hc        10 MOL       0.055033
    191 H109        -9.1810    -3.1310     0.6180 hc        10 MOL       0.055033
    192 H110        -9.2120    -1.8480     2.7490 h1        10 MOL       0.027700
    193 H111       -10.1080    -3.1900     3.5450 h1        10 MOL       0.027700
    194 H112       -11.0540    -0.4040     3.0780 h1        10 MOL       0.039700
    195 H113       -11.9700    -1.7320     3.8770 h1        10 MOL       0.039700
    196 H114       -13.6460    -1.6420     2.0980 h1        10 MOL       0.042200
    197 H115       -12.7190    -0.3140     1.3000 h1        10 MOL       0.042200
    198 H116       -15.3620    -0.1890     2.4760 h1        10 MOL       0.042033
    199 H117       -14.4160     1.1240     1.6800 h1        10 MOL       0.042033
    200 H118       -14.3140     2.3180     3.7590 h1        10 MOL       0.042533
    201 H119       -15.2670     1.0050     4.5590 h1        10 MOL       0.042533
    202 H120       -16.1440     3.7780     3.9570 h1        10 MOL       0.043033
    203 H121       -17.1080     2.4700     4.7570 h1        10 MOL       0.043033
    204 H122       -18.5200     2.3150     2.7850 h1        10 MOL       0.042533
    205 H123       -17.5620     3.6130     1.9900 h1        10 MOL       0.042533
    206 H124       -20.3980     3.6320     2.6810 h1        10 MOL       0.033367
    207 H125       -19.4400     4.9320     1.8820 h1        10 MOL       0.033367
    208 N3          23.4780   -33.9380   -18.9090 n         10 MOL      -0.571233
    209 H126        22.9520   -34.1130   -16.9490 h1        10 MOL       0.076533
    210 H127        24.2010   -32.8970   -17.3140 h1        10 MOL       0.076533
    211 C69         24.5050   -34.7620   -19.0640 c         10 MOL       0.657100
    212 H128        22.8730   -33.7450   -19.6750 hn        10 MOL       0.307500
    213 O17         25.2540   -34.9930   -18.1080 o         10 MOL      -0.601433
    214 C70         24.7670   -35.4100   -20.3860 c3        10 MOL      -0.159733
    215 C71         26.0710   -36.2190   -20.3040 c3        10 MOL       0.140067
    216 H129        23.9160   -36.0610   -20.6410 hc        10 MOL       0.078700
    217 H130        24.8220   -34.6330   -21.1640 hc        10 MOL       0.078700
    218 O18         26.3520   -36.8540   -21.5560 os        10 MOL      -0.436267
    219 H131        26.8960   -35.5410   -20.0440 h1        10 MOL       0.045033
    220 H132        25.9680   -36.9820   -19.5190 h1        10 MOL       0.045033
    221 C72         27.5620   -37.5740   -21.4050 c3        10 MOL       0.118400
    222 C73         27.9130   -38.2690   -22.7270 c3        10 MOL       0.129400
    223 H133        27.4430   -38.3280   -20.6110 h1        10 MOL       0.043533
    224 H134        28.3690   -36.8770   -21.1310 h1        10 MOL       0.043533
    225 O19         29.1250   -38.9820   -22.5620 os        10 MOL      -0.430267
    226 H135        27.1080   -38.9690   -23.0020 h1        10 MOL       0.048367
    227 H136        28.0340   -37.5170   -23.5220 h1        10 MOL       0.048367
    228 C74         29.4410   -39.6240   -23.7830 c3        10 MOL       0.116400
    229 C75         30.7480   -40.4120   -23.6090 c3        10 MOL       0.128067
    230 H137        28.6260   -40.3150   -24.0530 h1        10 MOL       0.045200
    231 H138        29.5610   -38.8700   -24.5760 h1        10 MOL       0.045200
    232 O20         31.0700   -41.0730   -24.8220 os        10 MOL      -0.432600
    233 H139        31.5650   -39.7260   -23.3360 h1        10 MOL       0.048533
    234 H140        30.6190   -41.1620   -22.8130 h1        10 MOL       0.048533
    235 C76         32.2570   -41.8140   -24.6090 c3        10 MOL       0.114400
    236 C77         32.6160   -42.5950   -25.8760 c3        10 MOL       0.129400
    237 H141        33.0830   -41.1330   -24.3500 h1        10 MOL       0.049367
    238 H142        32.0920   -42.5230   -23.7830 h1        10 MOL       0.049367
    239 O21         33.7740   -43.3420   -25.6100 os        10 MOL      -0.434267
    240 H143        31.8040   -43.2810   -26.1330 h1        10 MOL       0.053367
    241 H144        32.7880   -41.9000   -26.7140 h1        10 MOL       0.053367
    242 C78         34.0730   -44.1390   -26.7320 c3        10 MOL       0.109733
    243 C79         35.3060   -44.9820   -26.4120 c3        10 MOL       0.207800
    244 H145        33.2180   -44.8020   -26.9280 h1        10 MOL       0.054700
    245 H146        34.2610   -43.5050   -27.6160 h1        10 MOL       0.054700
    246 N4          35.5610   -45.8940   -27.5190 nh        10 MOL      -0.743933
    247 H147        36.1760   -44.3430   -26.2090 h1        10 MOL       0.071867
    248 H148        35.0760   -45.5790   -25.5160 h1        10 MOL       0.071867
    249 H149        34.7820   -46.4490   -27.8030 hn        10 MOL       0.444467
    250 N5          14.4040    -8.2300    28.0460 n         10 MOL      -0.571233
    251 H150        12.4110    -8.2740    27.5690 h1        10 MOL       0.076533
    252 H151        13.3440    -6.9250    26.8800 h1        10 MOL       0.076533
    253 C80         14.3870    -7.5910    29.2160 c         10 MOL       0.657100
    254 H152        15.1430    -8.8600    27.8330 hn        10 MOL       0.307500
    255 O22         13.4640    -6.8100    29.4700 o         10 MOL      -0.601433
    256 C81         15.4830    -7.8070    30.2320 c3        10 MOL      -0.159733
    257 C82         15.1020    -7.1490    31.5690 c3        10 MOL       0.140067
    258 H153        15.6660    -8.8870    30.3460 hc        10 MOL       0.078700
    259 H154        16.4140    -7.3630    29.8450 hc        10 MOL       0.078700
    260 O23         16.1590    -7.3430    32.5290 os        10 MOL      -0.436267
    261 H155        14.9410    -6.0740    31.4080 h1        10 MOL       0.045033
    262 H156        14.1730    -7.6050    31.9410 h1        10 MOL       0.045033
    263 C83         15.8010    -6.7580    33.7380 c3        10 MOL       0.118400
    264 C84         16.9090    -6.9790    34.6850 c3        10 MOL       0.129400
    265 H157        14.8880    -7.2290    34.1280 h1        10 MOL       0.043533
    266 H158        15.6370    -5.6800    33.6080 h1        10 MOL       0.043533
    267 O24         16.4900    -6.4000    35.8630 os        10 MOL      -0.430267
    268 H159        17.0750    -8.0590    34.8260 h1        10 MOL       0.048367
    269 H160        17.8320    -6.5000    34.3200 h1        10 MOL       0.048367
    270 C85         17.4220    -6.5810    36.7850 c3        10 MOL       0.116400
    271 C86         16.8900    -6.0110    37.9820 c3        10 MOL       0.128067
    272 H161        18.3580    -6.0780    36.5070 h1        10 MOL       0.045200
    273 H162        17.6050    -7.6540    36.9420 h1        10 MOL       0.045200
    274 O25         17.8930    -6.2810    38.8120 os        10 MOL      -0.432600
    275 H163        16.7170    -4.9290    37.8780 h1        10 MOL       0.048533
    276 H164        15.9650    -6.5280    38.2780 h1        10 MOL       0.048533
    277 C87         17.6650    -5.9200    40.0780 c3        10 MOL       0.114400
    278 C88         18.8630    -6.3610    40.6850 c3        10 MOL       0.129400
    279 H165        16.8000    -6.4520    40.4990 h1        10 MOL       0.049367
    280 H166        17.5430    -4.8370    40.1900 h1        10 MOL       0.049367
    281 O26         18.6630    -6.0450    41.9550 os        10 MOL      -0.434267
    282 H167        19.7340    -5.8500    40.2770 h1        10 MOL       0.053367
    283 H168        18.9580    -7.4460    40.5390 h1        10 MOL       0.053367
    284 C89         19.6550    -6.5340    42.7630 c3        10 MOL       0.109733
    285 C90         19.2740    -6.1100    44.1410 c3        10 MOL       0.207800
    286 H169        20.6270    -6.0980    42.4790 h1        10 MOL       0.054700
    287 H170        19.6990    -7.6320    42.6960 h1        10 MOL       0.054700
    288 N6          20.3000    -6.5740    45.0140 nh        10 MOL      -0.743933
    289 H171        18.3020    -6.5030    44.4050 h1        10 MOL       0.071867
    290 H172        19.2420    -5.0150    44.1520 h1        10 MOL       0.071867
    291 H173        21.1880    -6.1780    44.8580 hn        10 MOL       0.444467
    292 N7         -21.6730     5.9500     2.8930 n         10 MOL      -0.571233
    293 H174       -19.8890     6.4370     3.8100 h1        10 MOL       0.076533
    294 H175       -20.8370     5.1530     4.6030 h1        10 MOL       0.076533
    295 C91        -22.5240     6.8400     3.4040 c         10 MOL       0.657100
    296 H176       -21.8460     5.5600     1.9960 hn        10 MOL       0.307500
    297 O27        -22.3100     7.3240     4.5210 o         10 MOL      -0.601433
    298 C92        -23.7530     7.2550     2.6220 c3        10 MOL      -0.159733
    299 C93        -24.5960     8.2910     3.4060 c3        10 MOL       0.140067
    300 H177       -23.4320     7.6650     1.6520 hc        10 MOL       0.078700
    301 H178       -24.3480     6.3550     2.4010 hc        10 MOL       0.078700
    302 O28        -25.7600     8.6560     2.6300 os        10 MOL      -0.436267
    303 H179       -23.9840     9.1840     3.6000 h1        10 MOL       0.045033
    304 H180       -24.9130     7.8520     4.3630 h1        10 MOL       0.045033
    305 C94        -26.5390     9.6050     3.3270 c3        10 MOL       0.118400
    306 C95        -27.7290     9.9210     2.4790 c3        10 MOL       0.129400
    307 H181       -25.9550    10.5190     3.5030 h1        10 MOL       0.043533
    308 H182       -26.8740     9.1870     4.2870 h1        10 MOL       0.043533
    309 O29        -28.5050    10.8630     3.1670 os        10 MOL      -0.430267
    310 H183       -27.4000    10.3380     1.5140 h1        10 MOL       0.048367
    311 H184       -28.3150     9.0050     2.3070 h1        10 MOL       0.048367
    312 C96        -29.5800    11.1250     2.4150 c3        10 MOL       0.116400
    313 C97        -30.3860    12.1020     3.1140 c3        10 MOL       0.128067
    314 H185       -29.2760    11.5340     1.4410 h1        10 MOL       0.045200
    315 H186       -30.1690    10.2090     2.2630 h1        10 MOL       0.045200
    316 O30        -31.3860    12.2170     2.2320 os        10 MOL      -0.432600
    317 H187       -30.7410    11.7150     4.0820 h1        10 MOL       0.048533
    318 H188       -29.8440    13.0520     3.2460 h1        10 MOL       0.048533
    319 C98        -32.3370    13.0830     2.5900 c3        10 MOL       0.114400
    320 C99        -33.2390    12.9480     1.4820 c3        10 MOL       0.129400
    321 H189       -32.8300    12.7890     3.5280 h1        10 MOL       0.049367
    322 H190       -31.9510    14.1100     2.6600 h1        10 MOL       0.049367
    323 O31        -34.1640    13.7650     1.8000 os        10 MOL      -0.434267
    324 H191       -32.7540    13.2420     0.5490 h1        10 MOL       0.053367
    325 H192       -33.6190    11.9260     1.4180 h1        10 MOL       0.053367
    326 C100       -35.1810    13.8320     0.9180 c3        10 MOL       0.109733
    327 C101       -35.9430    14.8550     1.6500 c3        10 MOL       0.207800
    328 H193       -34.8460    14.1820    -0.0800 h1        10 MOL       0.054700
    329 H194       -35.7240    12.8640     0.8340 h1        10 MOL       0.054700
    330 N8         -37.1080    15.2100     1.0420 nh        10 MOL      -0.743933
    331 H195       -36.1670    14.4770     2.6580 h1        10 MOL       0.071867
    332 H196       -35.3130    15.7500     1.7620 h1        10 MOL       0.071867
    333 H197       -37.3520    14.7180     0.2190 hn        10 MOL       0.444467
    334 C102        36.8490   -46.2580   -27.9770 ca        10 MOL       0.305600
    335 C103        36.9510   -47.6430   -28.3450 ca        10 MOL      -0.237667
    336 H198        36.1210   -48.2690   -28.2760 ha        10 MOL       0.155000
    337 C104        38.0930   -48.1200   -28.7660 ca        10 MOL       0.006667
    338 H199        38.1910   -49.1370   -29.0420 ha        10 MOL       0.178000
    339 C105        39.2020   -47.2600   -28.8450 ca        10 MOL      -0.253533
    340 C106        39.1530   -46.0080   -28.5290 ca        10 MOL       0.036333
    341 H200        40.0210   -45.3970   -28.6160 ha        10 MOL       0.198333
    342 C107        37.9560   -45.4700   -28.1000 ca        10 MOL      -0.276200
    343 N9          40.2540   -47.7270   -29.2370 no        10 MOL       0.326867
    344 O32         41.3620   -47.0270   -29.2920 o         10 MOL      -0.208167
    345 O33         40.2580   -48.8510   -29.5450 o         10 MOL      -0.208167
    346 N10         38.0280   -44.1630   -27.9170 no        10 MOL       0.320867
    347 O34         36.9690   -43.4680   -28.0040 o         10 MOL      -0.206333
    348 O35         39.0600   -43.6050   -27.9150 o         10 MOL      -0.206333
    349 C108       -37.9840    16.2160     1.5110 ca        10 MOL       0.305600
    350 C109       -37.8640    17.1660     2.7540 ca        10 MOL      -0.276200
    351 C110       -38.8230    18.0200     2.9720 ca        10 MOL       0.036333
    352 H201       -38.7810    18.6840     3.8040 ha        10 MOL       0.198333
    353 C111       -39.8840    18.0620     2.1310 ca        10 MOL      -0.253533
    354 C112       -40.0310    17.2850     1.0730 ca        10 MOL       0.006667
    355 H202       -40.8970    17.3810     0.4610 ha        10 MOL       0.178000
    356 C113       -39.0540    16.3390     0.7570 ca        10 MOL      -0.237667
    357 H203       -39.1740    15.7270    -0.0790 ha        10 MOL       0.155000
    358 N11        -40.7680    18.8720     2.3630 no        10 MOL       0.326867
    359 O36        -41.7580    18.8930     1.5610 o         10 MOL      -0.208167
    360 O37        -40.7430    19.6120     3.2720 o         10 MOL      -0.208167
    361 N12        -36.8750    17.2480     3.6820 no        10 MOL       0.320867
    362 O38        -36.9530    18.1180     4.6530 o         10 MOL      -0.206333
    363 O39        -35.9410    16.5620     3.6390 o         10 MOL      -0.206333
    364 C114        20.1710    -7.4620    46.1260 ca        10 MOL       0.305600
    365 C115        18.9900    -8.3480    46.5610 ca        10 MOL      -0.276200
    366 C116        19.0700    -9.0330    47.6680 ca        10 MOL       0.036333
    367 H204        18.2700    -9.6630    47.9830 ha        10 MOL       0.198333
    368 C117        20.2080    -8.9810    48.3860 ca        10 MOL      -0.253533
    369 C118        21.2640    -8.2650    48.0450 ca        10 MOL       0.006667
    370 H205        22.1230    -8.2810    48.6490 ha        10 MOL       0.178000
    371 C119        21.2420    -7.4800    46.8900 ca        10 MOL      -0.237667
    372 H206        22.0690    -6.8970    46.6430 ha        10 MOL       0.155000
    373 N13         20.2900    -9.6530    49.4020 no        10 MOL       0.326867
    374 O40         21.4090    -9.6440    50.0040 o         10 MOL      -0.208167
    375 O41         19.4030   -10.2860    49.8370 o         10 MOL      -0.208167
    376 N14         17.8840    -8.5580    45.9060 no        10 MOL       0.320867
    377 O42         16.8910    -9.1610    46.4660 o         10 MOL      -0.206333
    378 O43         17.8400    -8.3400    44.7590 o         10 MOL      -0.206333
@<TRIPOS>BOND
     1     1    10 1   
     2     1    13 1   
     3     1    91 1   
     4     2    11 1   
     5     2    12 1   
     6     2    92 1   
     7     3    14 1   
     8     3    15 1   
     9     3    97 1   
    10     4     5 ar  
    11     4     9 ar  
    12     4    15 1   
    13     5     6 ar  
    14     5    88 1   
    15     6     7 ar  
    16     6    11 1   
    17     7     8 ar  
    18     7    89 1   
    19     8     9 ar  
    20     8    10 1   
    21     9    90 1   
    22    10    73 2   
    23    11    74 2   
    24    12    35 1   
    25    12    93 1   
    26    12    94 1   
    27    13    16 1   
    28    13    95 1   
    29    13    96 1   
    30    14    54 1   
    31    14    98 1   
    32    14    99 1   
    33    15    75 2   
    34    16    17 1   
    35    16   100 1   
    36    16   101 1   
    37    17    18 1   
    38    17   102 1   
    39    17   103 1   
    40    18    19 1   
    41    18   104 1   
    42    18   105 1   
    43    19    20 1   
    44    19   106 1   
    45    19   107 1   
    46    20    21 1   
    47    20   108 1   
    48    20   109 1   
    49    21    22 1   
    50    21   110 1   
    51    21   111 1   
    52    22    23 1   
    53    22   112 1   
    54    22   113 1   
    55    23    24 1   
    56    23   114 1   
    57    23   115 1   
    58    24    25 1   
    59    24   116 1   
    60    24   117 1   
    61    25    26 1   
    62    25   118 1   
    63    25   119 1   
    64    26    76 1   
    65    26   120 1   
    66    26   121 1   
    67    27    28 1   
    68    27    76 1   
    69    27   122 1   
    70    27   123 1   
    71    28    77 1   
    72    28   124 1   
    73    28   125 1   
    74    29    30 1   
    75    29    77 1   
    76    29   126 1   
    77    29   127 1   
    78    30    78 1   
    79    30   128 1   
    80    30   129 1   
    81    31    32 1   
    82    31    78 1   
    83    31   130 1   
    84    31   131 1   
    85    32    79 1   
    86    32   132 1   
    87    32   133 1   
    88    33    34 1   
    89    33    79 1   
    90    33   134 1   
    91    33   135 1   
    92    34   208 1   
    93    34   209 1   
    94    34   210 1   
    95    35    36 1   
    96    35   136 1   
    97    35   137 1   
    98    36    37 1   
    99    36   138 1   
   100    36   139 1   
   101    37    38 1   
   102    37   140 1   
   103    37   141 1   
   104    38    39 1   
   105    38   142 1   
   106    38   143 1   
   107    39    40 1   
   108    39   144 1   
   109    39   145 1   
   110    40    41 1   
   111    40   146 1   
   112    40   147 1   
   113    41    42 1   
   114    41   148 1   
   115    41   149 1   
   116    42    43 1   
   117    42   150 1   
   118    42   151 1   
   119    43    44 1   
   120    43   152 1   
   121    43   153 1   
   122    44    45 1   
   123    44   154 1   
   124    44   155 1   
   125    45    80 1   
   126    45   156 1   
   127    45   157 1   
   128    46    47 1   
   129    46    80 1   
   130    46   158 1   
   131    46   159 1   
   132    47    81 1   
   133    47   160 1   
   134    47   161 1   
   135    48    49 1   
   136    48    81 1   
   137    48   162 1   
   138    48   163 1   
   139    49    82 1   
   140    49   164 1   
   141    49   165 1   
   142    50    51 1   
   143    50    82 1   
   144    50   166 1   
   145    50   167 1   
   146    51    83 1   
   147    51   168 1   
   148    51   169 1   
   149    52    53 1   
   150    52    83 1   
   151    52   170 1   
   152    52   171 1   
   153    53   250 1   
   154    53   251 1   
   155    53   252 1   
   156    54    55 1   
   157    54   172 1   
   158    54   173 1   
   159    55    56 1   
   160    55   174 1   
   161    55   175 1   
   162    56    57 1   
   163    56   176 1   
   164    56   177 1   
   165    57    58 1   
   166    57   178 1   
   167    57   179 1   
   168    58    59 1   
   169    58   180 1   
   170    58   181 1   
   171    59    60 1   
   172    59   182 1   
   173    59   183 1   
   174    60    61 1   
   175    60   184 1   
   176    60   185 1   
   177    61    62 1   
   178    61   186 1   
   179    61   187 1   
   180    62    63 1   
   181    62   188 1   
   182    62   189 1   
   183    63    64 1   
   184    63   190 1   
   185    63   191 1   
   186    64    84 1   
   187    64   192 1   
   188    64   193 1   
   189    65    66 1   
   190    65    84 1   
   191    65   194 1   
   192    65   195 1   
   193    66    85 1   
   194    66   196 1   
   195    66   197 1   
   196    67    68 1   
   197    67    85 1   
   198    67   198 1   
   199    67   199 1   
   200    68    86 1   
   201    68   200 1   
   202    68   201 1   
   203    69    70 1   
   204    69    86 1   
   205    69   202 1   
   206    69   203 1   
   207    70    87 1   
   208    70   204 1   
   209    70   205 1   
   210    71    72 1   
   211    71    87 1   
   212    71   206 1   
   213    71   207 1   
   214    72   292 1   
   215    72   293 1   
   216    72   294 1   
   217   208   211 1   
   218   208   212 1   
   219   211   213 2   
   220   211   214 1   
   221   214   215 1   
   222   214   216 1   
   223   214   217 1   
   224   215   218 1   
   225   215   219 1   
   226   215   220 1   
   227   218   221 1   
   228   221   222 1   
   229   221   223 1   
   230   221   224 1   
   231   222   225 1   
   232   222   226 1   
   233   222   227 1   
   234   225   228 1   
   235   228   229 1   
   236   228   230 1   
   237   228   231 1   
   238   229   232 1   
   239   229   233 1   
   240   229   234 1   
   241   232   235 1   
   242   235   236 1   
   243   235   237 1   
   244   235   238 1   
   245   236   239 1   
   246   236   240 1   
   247   236   241 1   
   248   239   242 1   
   249   242   243 1   
   250   242   244 1   
   251   242   245 1   
   252   243   246 1   
   253   243   247 1   
   254   243   248 1   
   255   246   249 1   
   256   246   334 1   
   257   250   253 1   
   258   250   254 1   
   259   253   255 2   
   260   253   256 1   
   261   256   257 1   
   262   256   258 1   
   263   256   259 1   
   264   257   260 1   
   265   257   261 1   
   266   257   262 1   
   267   260   263 1   
   268   263   264 1   
   269   263   265 1   
   270   263   266 1   
   271   264   267 1   
   272   264   268 1   
   273   264   269 1   
   274   267   270 1   
   275   270   271 1   
   276   270   272 1   
   277   270   273 1   
   278   271   274 1   
   279   271   275 1   
   280   271   276 1   
   281   274   277 1   
   282   277   278 1   
   283   277   279 1   
   284   277   280 1   
   285   278   281 1   
   286   278   282 1   
   287   278   283 1   
   288   281   284 1   
   289   284   285 1   
   290   284   286 1   
   291   284   287 1   
   292   285   288 1   
   293   285   289 1   
   294   285   290 1   
   295   288   291 1   
   296   288   364 1   
   297   292   295 1   
   298   292   296 1   
   299   295   297 2   
   300   295   298 1   
   301   298   299 1   
   302   298   300 1   
   303   298   301 1   
   304   299   302 1   
   305   299   303 1   
   306   299   304 1   
   307   302   305 1   
   308   305   306 1   
   309   305   307 1   
   310   305   308 1   
   311   306   309 1   
   312   306   310 1   
   313   306   311 1   
   314   309   312 1   
   315   312   313 1   
   316   312   314 1   
   317   312   315 1   
   318   313   316 1   
   319   313   317 1   
   320   313   318 1   
   321   316   319 1   
   322   319   320 1   
   323   319   321 1   
   324   319   322 1   
   325   320   323 1   
   326   320   324 1   
   327   320   325 1   
   328   323   326 1   
   329   326   327 1   
   330   326   328 1   
   331   326   329 1   
   332   327   330 1   
   333   327   331 1   
   334   327   332 1   
   335   330   333 1   
   336   330   349 1   
   337   334   335 ar  
   338   334   342 ar  
   339   335   336 1   
   340   335   337 ar  
   341   337   338 1   
   342   337   339 ar  
   343   339   340 ar  
   344   339   343 1   
   345   340   341 1   
   346   340   342 ar  
   347   342   346 1   
   348   343   344 1   
   349   343   345 1   
   350   346   347 1   
   351   346   348 1   
   352   349   350 ar  
   353   349   356 ar  
   354   350   351 ar  
   355   350   361 1   
   356   351   352 1   
   357   351   353 ar  
   358   353   354 ar  
   359   353   358 1   
   360   354   355 1   
   361   354   356 ar  
   362   356   357 1   
   363   358   359 1   
   364   358   360 1   
   365   361   362 1   
   366   361   363 1   
   367   364   365 ar  
   368   364   371 ar  
   369   365   366 ar  
   370   365   376 1   
   371   366   367 1   
   372   366   368 ar  
   373   368   369 ar  
   374   368   373 1   
   375   369   370 1   
   376   369   371 ar  
   377   371   372 1   
   378   373   374 1   
   379   373   375 1   
   380   376   377 1   
   381   376   378 1   
@<TRIPOS>SUBSTRUCTURE
     1 MOL         1 TEMP              0 ****  ****    0 ROOT
