@<TRIPOS>MOLECULE
MOL
  378   381     1     0     0
SMALL
bcc


@<TRIPOS>ATOM
      1 N          -10.1350     3.7490     7.0260 n          1 MOL      -0.561233
      2 N1         -10.3610    -2.3810     4.9960 n          1 MOL      -0.561233
      3 N2          -5.3180    -1.5090     5.6180 n          1 MOL      -0.561233
      4 C           -7.0610     0.0520     6.2810 ca         1 MOL      -0.155933
      5 C1          -8.1310    -0.8150     6.0080 ca         1 MOL      -0.040000
      6 C2          -9.4530    -0.3420     5.9550 ca         1 MOL      -0.155933
      7 C3          -9.6890     1.0210     6.1840 ca         1 MOL      -0.040000
      8 C4          -8.6410     1.9110     6.4730 ca         1 MOL      -0.155933
      9 C5          -7.3350     1.4060     6.5130 ca         1 MOL      -0.040000
     10 C6          -8.8830     3.3850     6.7220 c          1 MOL       0.668033
     11 C7         -10.6190    -1.2680     5.6910 c          1 MOL       0.668033
     12 C8         -11.3320    -3.4450     4.6950 c3         1 MOL       0.083000
     13 C9         -10.5860     5.1040     7.2460 c3         1 MOL       0.083000
     14 C10         -3.9980    -1.9520     5.6610 c3         1 MOL       0.083000
     15 C11         -5.6360    -0.4410     6.3630 c          1 MOL       0.668033
     16 C12         -3.8690    -3.2580     4.9840 c3         1 MOL      -0.105067
     17 C13         -2.4320    -3.6280     5.0640 c3         1 MOL      -0.077067
     18 C14         -2.2930    -4.9300     4.3870 c3         1 MOL      -0.078733
     19 C15         -0.8630    -5.3290     4.4260 c3         1 MOL      -0.079400
     20 C16         -0.8090    -6.6290     3.7270 c3         1 MOL      -0.079067
     21 C17          0.5900    -7.1170     3.6880 c3         1 MOL      -0.079400
     22 C18          0.5080    -8.4100     2.9660 c3         1 MOL      -0.079400
     23 C19          1.8600    -9.0050     2.8450 c3         1 MOL      -0.078400
     24 C20          1.6520   -10.2850     2.1140 c3         1 MOL      -0.078067
     25 C21          2.9610   -10.9590     1.9400 c3         1 MOL      -0.084400
     26 C22          2.6850   -12.2300     1.2170 c3         1 MOL       0.131400
     27 C23          3.6880   -14.0530     0.4340 c3         1 MOL       0.095400
     28 C24          4.9780   -14.6730     0.3150 c3         1 MOL       0.125400
     29 C25          5.7600   -16.5280    -0.4390 c3         1 MOL       0.103400
     30 C26          5.2890   -17.7060    -1.0430 c3         1 MOL       0.103067
     31 C27          6.3560   -19.5220    -1.7190 c3         1 MOL       0.124400
     32 C28          7.7350   -19.8670    -1.6770 c3         1 MOL       0.108400
     33 C29          9.0720   -21.4410    -2.3250 c3         1 MOL       0.104400
     34 C30          8.9300   -22.6710    -3.1030 c3         1 MOL       0.074000
     35 C31        -12.7960    -3.0280     4.5930 c3         1 MOL      -0.105067
     36 C32        -13.5580    -4.2870     4.3020 c3         1 MOL      -0.077067
     37 C33        -15.0280    -3.9910     4.2190 c3         1 MOL      -0.078733
     38 C34        -15.6960    -5.3070     3.9340 c3         1 MOL      -0.079400
     39 C35        -17.1840    -5.1250     3.8590 c3         1 MOL      -0.079067
     40 C36        -17.7520    -6.4870     3.5670 c3         1 MOL      -0.079400
     41 C37        -19.2490    -6.4070     3.4900 c3         1 MOL      -0.079400
     42 C38        -19.7380    -7.8000     3.1850 c3         1 MOL      -0.078400
     43 C39        -21.2390    -7.7950     3.1030 c3         1 MOL      -0.078067
     44 C40        -21.6740    -9.2050     2.7830 c3         1 MOL      -0.084400
     45 C41        -23.1730    -9.2400     2.6960 c3         1 MOL       0.131400
     46 C42        -24.8960   -10.6310     2.3100 c3         1 MOL       0.095400
     47 C43        -25.2480   -11.9980     1.9560 c3         1 MOL       0.125400
     48 C44        -27.1590   -13.0280     1.5940 c3         1 MOL       0.103400
     49 C45        -28.5130   -12.6440     1.6450 c3         1 MOL       0.103067
     50 C46        -30.4280   -13.6360     1.2770 c3         1 MOL       0.124400
     51 C47        -30.7990   -14.9470     0.8580 c3         1 MOL       0.108400
     52 C48        -32.6010   -16.1400     0.3680 c3         1 MOL       0.104400
     53 C49        -34.0720   -15.9900     0.3220 c3         1 MOL       0.074000
     54 C50         -9.6190     6.0150     7.9930 c3         1 MOL      -0.105067
     55 C51        -10.3320     7.3320     8.0910 c3         1 MOL      -0.077067
     56 C52         -9.4860     8.3500     8.7990 c3         1 MOL      -0.078733
     57 C53        -10.3360     9.5910     8.8520 c3         1 MOL      -0.079400
     58 C54         -9.6120    10.7060     9.5480 c3         1 MOL      -0.079067
     59 C55        -10.5820    11.8570     9.5750 c3         1 MOL      -0.079400
     60 C56         -9.9640    13.0300    10.2760 c3         1 MOL      -0.079400
     61 C57        -11.0110    14.1160    10.3120 c3         1 MOL      -0.078400
     62 C58        -10.4480    15.3050    11.0350 c3         1 MOL      -0.078067
     63 C59        -11.5240    16.3610    11.1100 c3         1 MOL      -0.084400
     64 C60        -10.9530    17.5270    11.8630 c3         1 MOL       0.131400
     65 C61        -11.4090    19.5300    12.7140 c3         1 MOL       0.095400
     66 C62        -12.4220    20.5560    12.9410 c3         1 MOL       0.125400
     67 C63        -12.3320    22.4610    14.0890 c3         1 MOL       0.103400
     68 C64        -11.2840    23.0990    14.7920 c3         1 MOL       0.103067
     69 C65        -11.0630    24.9380    15.9670 c3         1 MOL       0.124400
     70 C66        -11.9440    25.9510    16.3520 c3         1 MOL       0.108400
     71 C67        -11.9150    27.8250    17.3300 c3         1 MOL       0.104400
     72 C68        -10.9510    28.7700    17.9270 c3         1 MOL       0.074000
     73 O           -7.9590     4.1980     6.6690 o          1 MOL      -0.594433
     74 O1         -11.7500    -0.9930     6.0950 o          1 MOL      -0.594433
     75 O2          -4.8090     0.1310     7.0750 o          1 MOL      -0.594433
     76 O3           3.9060   -12.8850     1.0500 os         1 MOL      -0.431267
     77 O4           4.6800   -15.8330    -0.2840 os         1 MOL      -0.417933
     78 O5           6.4340   -18.3330    -1.1510 os         1 MOL      -0.420933
     79 O6           7.7890   -21.0270    -2.2480 os         1 MOL      -0.426600
     80 O8         -23.5520   -10.5650     2.3830 os         1 MOL      -0.431267
     81 O9         -26.5900   -11.9060     1.9230 os         1 MOL      -0.417933
     82 O10        -29.1060   -13.7600     1.3040 os         1 MOL      -0.420933
     83 O11        -32.1240   -14.9170     0.7940 os         1 MOL      -0.426600
     84 O13        -11.9480    18.5250    11.9970 os         1 MOL      -0.431267
     85 O14        -11.6830    21.4170    13.6680 os         1 MOL      -0.417933
     86 O15        -11.8840    24.1660    15.2620 os         1 MOL      -0.420933
     87 O16        -11.1880    26.7640    17.0310 os         1 MOL      -0.426600
     88 H253        -7.9360    -1.8700     5.8650 ha         1 MOL       0.162000
     89 H254       -10.7070     1.3860     6.1260 ha         1 MOL       0.162000
     90 H255        -6.5130     2.0800     6.7280 ha         1 MOL       0.162000
     91 H250       -10.8220     3.0160     7.1260 hn         1 MOL       0.306833
     92 H251        -9.4600    -2.4610     4.5440 hn         1 MOL       0.306833
     93 H252        -6.0210    -1.8850     5.0020 hn         1 MOL       0.306833
     94 H6          -3.6740    -2.0230     6.7090 h1         1 MOL       0.064533
     95 H7          -3.3630    -1.2100     5.1570 h1         1 MOL       0.064533
     96 H8          -4.1740    -3.1740     3.9310 hc         1 MOL       0.044867
     97 H9          -4.4840    -4.0150     5.4920 hc         1 MOL       0.044867
     98 H10         -2.1190    -3.7100     6.1140 hc         1 MOL       0.043533
     99 H11         -1.8230    -2.8700     4.5520 hc         1 MOL       0.043533
    100 H12         -2.6200    -4.8400     3.3420 hc         1 MOL       0.040700
    101 H13         -2.9060    -5.6840     4.9010 hc         1 MOL       0.040700
    102 H14         -0.5180    -5.4350     5.4640 hc         1 MOL       0.040867
    103 H15         -0.2460    -4.5860     3.9000 hc         1 MOL       0.040867
    104 H16         -1.1790    -6.5050     2.6990 hc         1 MOL       0.040033
    105 H17         -1.4400    -7.3570     4.2570 hc         1 MOL       0.040033
    106 H18          0.9780    -7.2660     4.7060 hc         1 MOL       0.040367
    107 H19          1.2280    -6.4090     3.1410 hc         1 MOL       0.040367
    108 H20          0.0940    -8.2400     1.9620 hc         1 MOL       0.039533
    109 H21         -0.1480    -9.0960     3.5200 hc         1 MOL       0.039533
    110 H22          2.2860    -9.1970     3.8400 hc         1 MOL       0.042200
    111 H23          2.5230    -8.3390     2.2740 hc         1 MOL       0.042200
    112 H24          1.2090   -10.0800     1.1290 hc         1 MOL       0.040033
    113 H25          0.9780   -10.9310     2.6920 hc         1 MOL       0.040033
    114 H26          3.4090   -11.1740     2.9200 hc         1 MOL       0.055033
    115 H27          3.6400   -10.3260     1.3510 hc         1 MOL       0.055033
    116 H28          2.2300   -12.0140     0.2380 h1         1 MOL       0.026867
    117 H29          2.0010   -12.8500     1.8160 h1         1 MOL       0.026867
    118 H30          3.2520   -13.8980    -0.5620 h1         1 MOL       0.037533
    119 H31          3.0270   -14.6900     1.0380 h1         1 MOL       0.037533
    120 H32          5.6540   -14.0600    -0.3040 h1         1 MOL       0.062200
    121 H33          5.4180   -14.8430     1.3110 h1         1 MOL       0.062200
    122 H34          6.2310   -16.7610     0.5270 h1         1 MOL       0.053033
    123 H35          6.4770   -16.0170    -1.1000 h1         1 MOL       0.053033
    124 H36          4.8320   -17.4900    -2.0200 h1         1 MOL       0.056033
    125 H37          4.5830   -18.2320    -0.3850 h1         1 MOL       0.056033
    126 H38          6.0000   -19.4600    -2.7590 h1         1 MOL       0.054033
    127 H39          5.7470   -20.2300    -1.1360 h1         1 MOL       0.054033
    128 H40          8.0900   -19.9100    -0.6370 h1         1 MOL       0.040867
    129 H41          8.3150   -19.1250    -2.2450 h1         1 MOL       0.040867
    130 H42          9.5020   -21.6260    -1.3270 h1         1 MOL       0.039533
    131 H43          9.6840   -20.7110    -2.8790 h1         1 MOL       0.039533
    132 H46        -11.2630    -4.1930     5.4990 h1         1 MOL       0.064533
    133 H47        -11.0330    -3.9280     3.7540 h1         1 MOL       0.064533
    134 H48        -12.9390    -2.2980     3.7830 hc         1 MOL       0.044867
    135 H49        -13.1380    -2.6010     5.5460 hc         1 MOL       0.044867
    136 H50        -13.2120    -4.7130     3.3500 hc         1 MOL       0.043533
    137 H51        -13.3840    -5.0100     5.1110 hc         1 MOL       0.043533
    138 H52        -15.2320    -3.2750     3.4110 hc         1 MOL       0.040700
    139 H53        -15.3830    -3.5850     5.1770 hc         1 MOL       0.040700
    140 H54        -15.3250    -5.7030     2.9780 hc         1 MOL       0.040867
    141 H55        -15.4600    -6.0170     4.7390 hc         1 MOL       0.040867
    142 H56        -17.4450    -4.4240     3.0530 hc         1 MOL       0.040033
    143 H57        -17.5680    -4.7500     4.8190 hc         1 MOL       0.040033
    144 H58        -17.4660    -7.1820     4.3690 hc         1 MOL       0.040367
    145 H59        -17.3530    -6.8490     2.6090 hc         1 MOL       0.040367
    146 H60        -19.5510    -5.7170     2.6890 hc         1 MOL       0.039533
    147 H61        -19.6570    -6.0620     4.4520 hc         1 MOL       0.039533
    148 H62        -19.4170    -8.4860     3.9820 hc         1 MOL       0.042200
    149 H63        -19.3180    -8.1320     2.2250 hc         1 MOL       0.042200
    150 H64        -21.5690    -7.1130     2.3070 hc         1 MOL       0.040033
    151 H65        -21.6660    -7.4780     4.0640 hc         1 MOL       0.040033
    152 H66        -21.2410    -9.5120     1.8200 hc         1 MOL       0.055033
    153 H67        -21.3330    -9.8870     3.5740 hc         1 MOL       0.055033
    154 H68        -23.6070    -8.9400     3.6630 h1         1 MOL       0.026867
    155 H69        -23.5160    -8.5550     1.9060 h1         1 MOL       0.026867
    156 H70        -25.2700    -9.9480     1.5340 h1         1 MOL       0.037533
    157 H71        -25.3460   -10.3740     3.2790 h1         1 MOL       0.037533
    158 H72        -24.8350   -12.2680     0.9710 h1         1 MOL       0.062200
    159 H73        -24.9080   -12.7090     2.7260 h1         1 MOL       0.062200
    160 H74        -26.9520   -13.8260     2.3210 h1         1 MOL       0.053033
    161 H75        -26.8820   -13.3460     0.5790 h1         1 MOL       0.053033
    162 H76        -28.7100   -11.8390     0.9230 h1         1 MOL       0.056033
    163 H77        -28.7860   -12.3260     2.6620 h1         1 MOL       0.056033
    164 H78        -30.8390   -13.4070     2.2730 h1         1 MOL       0.054033
    165 H79        -30.7530   -12.8860     0.5400 h1         1 MOL       0.054033
    166 H80        -30.3610   -15.1580    -0.1290 h1         1 MOL       0.040867
    167 H81        -30.4540   -15.6900     1.5900 h1         1 MOL       0.040867
    168 H82        -32.2120   -16.3760    -0.6350 h1         1 MOL       0.039533
    169 H83        -32.3180   -16.9330     1.0790 h1         1 MOL       0.039533
    170 H86        -11.5360     5.0610     7.7970 h1         1 MOL       0.064533
    171 H87        -10.7750     5.5590     6.2630 h1         1 MOL       0.064533
    172 H88         -9.4090     5.6210     8.9970 hc         1 MOL       0.044867
    173 H89         -8.6820     6.1320     7.4310 hc         1 MOL       0.044867
    174 H90        -11.2680     7.1880     8.6490 hc         1 MOL       0.043533
    175 H91        -10.5630     7.6980     7.0800 hc         1 MOL       0.043533
    176 H92         -8.5580     8.5360     8.2400 hc         1 MOL       0.040700
    177 H93         -9.2490     8.0090     9.8160 hc         1 MOL       0.040700
    178 H94        -11.2580     9.3630     9.4050 hc         1 MOL       0.040867
    179 H95        -10.5920     9.9060     7.8300 hc         1 MOL       0.040867
    180 H96         -8.6990    10.9770     8.9990 hc         1 MOL       0.040033
    181 H97         -9.3560    10.4080    10.5740 hc         1 MOL       0.040033
    182 H98        -11.4850    11.5480    10.1210 hc         1 MOL       0.040367
    183 H99        -10.8550    12.1410     8.5490 hc         1 MOL       0.040367
    184 H100        -9.0690    13.3710     9.7350 hc         1 MOL       0.039533
    185 H101        -9.6920    12.7460    11.3030 hc         1 MOL       0.039533
    186 H102       -11.8940    13.7470    10.8540 hc         1 MOL       0.042200
    187 H103       -11.2990    14.3990     9.2900 hc         1 MOL       0.042200
    188 H104        -9.5710    15.6920    10.4980 hc         1 MOL       0.040033
    189 H105       -10.1580    15.0100    12.0530 hc         1 MOL       0.040033
    190 H106       -12.3920    15.9610    11.6540 hc         1 MOL       0.055033
    191 H107       -11.8290    16.6700    10.1000 hc         1 MOL       0.055033
    192 H108       -10.0820    17.9290    11.3230 h1         1 MOL       0.026867
    193 H109       -10.6410    17.1870    12.8620 h1         1 MOL       0.026867
    194 H110       -10.5580    19.9680    12.1750 h1         1 MOL       0.037533
    195 H111       -11.0700    19.1500    13.6890 h1         1 MOL       0.037533
    196 H112       -13.2690    20.1540    13.5220 h1         1 MOL       0.062200
    197 H113       -12.7720    21.0030    11.9970 h1         1 MOL       0.062200
    198 H114       -13.1530    22.1930    14.7690 h1         1 MOL       0.053033
    199 H115       -12.6960    23.0890    13.2640 h1         1 MOL       0.053033
    200 H116       -10.4640    23.3540    14.1030 h1         1 MOL       0.056033
    201 H117       -10.9170    22.4490    15.6020 h1         1 MOL       0.056033
    202 H118       -10.2510    25.3470    15.3450 h1         1 MOL       0.054033
    203 H119       -10.6560    24.4200    16.8470 h1         1 MOL       0.054033
    204 H120       -12.7640    25.5450    16.9620 h1         1 MOL       0.040867
    205 H121       -12.3430    26.4380    15.4510 h1         1 MOL       0.040867
    206 H122       -12.7350    27.5750    18.0250 h1         1 MOL       0.039533
    207 H123       -12.3250    28.2500    16.4000 h1         1 MOL       0.039533
    208 N3          10.1800   -23.2270    -3.3440 n          1 MOL      -0.571567
    209 H124         8.4680   -22.4030    -4.0640 h1         1 MOL       0.074200
    210 H45          8.2890   -23.3900    -2.5800 h1         1 MOL       0.074200
    211 C69         10.2550   -24.0440    -4.3580 c          1 MOL       0.656767
    212 H125        10.9450   -23.1600    -2.6510 hn         1 MOL       0.307833
    213 O17          9.2660   -24.1680    -5.0860 o          1 MOL      -0.601433
    214 C70         11.4680   -24.8150    -4.6200 c3         1 MOL      -0.160733
    215 C71         11.0270   -26.2400    -4.6260 c3         1 MOL       0.138733
    216 H85         12.2380   -24.6330    -3.8560 hc         1 MOL       0.081700
    217 H126        11.8480   -24.5990    -5.6320 hc         1 MOL       0.081700
    218 O18         12.1200   -27.0500    -4.9130 os         1 MOL      -0.432600
    219 H127        10.2540   -26.3680    -5.4010 h1         1 MOL       0.040367
    220 H128        10.6080   -26.5040    -3.6450 h1         1 MOL       0.040367
    221 C72         11.6570   -28.3010    -4.9180 c3         1 MOL       0.105067
    222 C73         12.7520   -29.1910    -5.3100 c3         1 MOL       0.127067
    223 H129        10.8440   -28.3900    -5.6500 h1         1 MOL       0.043700
    224 H130        11.2860   -28.5730    -3.9210 h1         1 MOL       0.043700
    225 O19         12.1330   -30.3800    -5.2830 os         1 MOL      -0.420600
    226 H131        13.1010   -28.9440    -6.3250 h1         1 MOL       0.055367
    227 H132        13.5880   -29.1510    -4.5930 h1         1 MOL       0.055367
    228 C74         12.9120   -31.3470    -5.7230 c3         1 MOL       0.106733
    229 C75         12.0600   -32.4830    -5.5840 c3         1 MOL       0.100067
    230 H133        13.8120   -31.4580    -5.1050 h1         1 MOL       0.056867
    231 H134        13.1840   -31.1910    -6.7770 h1         1 MOL       0.056867
    232 O20         12.8200   -33.4050    -6.0650 os         1 MOL      -0.421933
    233 H135        11.1390   -32.3640    -6.1760 h1         1 MOL       0.054033
    234 H136        11.8240   -32.6490    -4.5270 h1         1 MOL       0.054033
    235 C76         12.3470   -34.6900    -5.9870 c3         1 MOL       0.128733
    236 C77         13.5000   -35.2660    -6.6640 c3         1 MOL       0.091067
    237 H137        11.4220   -34.8410    -6.5530 h1         1 MOL       0.056200
    238 H138        12.2470   -35.0340    -4.9420 h1         1 MOL       0.056200
    239 O21         13.5300   -36.6470    -6.7860 os         1 MOL      -0.410933
    240 H139        13.5450   -34.8160    -7.6650 h1         1 MOL       0.051200
    241 H140        14.3970   -34.9610    -6.0980 h1         1 MOL       0.051200
    242 C78         14.7210   -36.8090    -7.5310 c3         1 MOL       0.108400
    243 C79         15.3460   -38.2080    -7.5870 c3         1 MOL       0.152800
    244 H141        15.4410   -36.1920    -7.0480 h1         1 MOL       0.058033
    245 H142        14.5490   -36.4360    -8.5490 h1         1 MOL       0.058033
    246 N4          16.6650   -38.2840    -8.4160 nh         1 MOL      -0.735600
    247 H143        14.6270   -38.9190    -8.0270 h1         1 MOL       0.082033
    248 H144        15.5620   -38.5390    -6.5580 h1         1 MOL       0.082033
    249 H145        16.8420   -39.1970    -8.8210 hn         1 MOL       0.435800
    250 N5         -11.6500    29.8930    18.1240 n          1 MOL      -0.571567
    251 H146       -10.1590    28.9600    17.1910 h1         1 MOL       0.074200
    252 H147       -10.5420    28.3580    18.8590 h1         1 MOL       0.074200
    253 C80        -11.8910    30.6450    17.0680 c          1 MOL       0.656767
    254 H148       -11.9820    30.1400    19.0320 hn         1 MOL       0.307833
    255 C81        -12.6510    31.8530    17.2220 c3         1 MOL      -0.160733
    256 O22        -11.4590    30.3180    15.9580 o          1 MOL      -0.601433
    257 C82        -11.6620    32.8780    17.6490 c3         1 MOL       0.138733
    258 H149       -13.1080    32.1680    16.2730 hc         1 MOL       0.081700
    259 H150       -13.3890    31.7420    18.0270 hc         1 MOL       0.081700
    260 O23        -12.3570    34.0500    17.8550 os         1 MOL      -0.432600
    261 H151       -11.1850    32.5540    18.5850 h1         1 MOL       0.040367
    262 H152       -10.8950    33.0140    16.8680 h1         1 MOL       0.040367
    263 C83        -11.4900    34.9750    18.2840 c3         1 MOL       0.105067
    264 C84        -12.2790    36.1930    18.5170 c3         1 MOL       0.127067
    265 H153       -10.7160    35.1560    17.5270 h1         1 MOL       0.043700
    266 H154       -11.0250    34.6460    19.2210 h1         1 MOL       0.043700
    267 O24        -11.3900    37.1000    18.9780 os         1 MOL      -0.420600
    268 H155       -12.7460    36.5370    17.5810 h1         1 MOL       0.055367
    269 H156       -13.0540    35.9990    19.2760 h1         1 MOL       0.055367
    270 C85        -12.0470    38.2130    19.2460 c3         1 MOL       0.106733
    271 C86        -11.0770    39.1070    19.7660 c3         1 MOL       0.100067
    272 H157       -12.5000    38.6350    18.3370 h1         1 MOL       0.056867
    273 H158       -12.8230    38.0350    20.0050 h1         1 MOL       0.056867
    274 O25        -11.8710    40.1430    19.9950 os         1 MOL      -0.421933
    275 H159       -10.6340    38.7110    20.6910 h1         1 MOL       0.054033
    276 H160       -10.2990    39.3320    19.0210 h1         1 MOL       0.054033
    277 C87        -11.2630    41.2040    20.5250 c3         1 MOL       0.128733
    278 C88        -12.3790    42.0980    20.6430 c3         1 MOL       0.091067
    279 H161       -10.8350    40.9820    21.5150 h1         1 MOL       0.056200
    280 H162       -10.4960    41.6200    19.8550 h1         1 MOL       0.056200
    281 O26        -11.8320    43.1280    21.1520 os         1 MOL      -0.410933
    282 H163       -12.8010    42.3170    19.6600 h1         1 MOL       0.051200
    283 H164       -13.1370    41.6820    21.3100 h1         1 MOL       0.051200
    284 C89        -12.6710    44.1560    21.3740 c3         1 MOL       0.108400
    285 C90        -11.6480    45.0490    21.9370 c3         1 MOL       0.152800
    286 H165       -13.1140    44.5440    20.4320 h1         1 MOL       0.058033
    287 H166       -13.4660    43.8960    22.1050 h1         1 MOL       0.058033
    288 N6         -12.1290    46.2650    22.3050 nh         1 MOL      -0.735600
    289 H167       -11.1970    44.5630    22.8160 h1         1 MOL       0.082033
    290 H168       -10.8510    45.1920    21.1920 h1         1 MOL       0.082033
    291 H169       -13.0930    46.4290    22.1590 hn         1 MOL       0.435800
    292 N7         -34.6190   -17.1950    -0.1090 n          1 MOL      -0.571567
    293 H170       -34.3590   -15.1840    -0.3690 h1         1 MOL       0.074200
    294 H171       -34.4550   -15.7450     1.3220 h1         1 MOL       0.074200
    295 C91        -35.9010   -17.2590    -0.4410 c          1 MOL       0.656767
    296 H172       -34.0490   -18.0080    -0.1760 hn         1 MOL       0.307833
    297 O27        -36.6130   -16.2520    -0.3620 o          1 MOL      -0.601433
    298 C92        -36.4790   -18.5550    -0.9110 c3         1 MOL      -0.160733
    299 C93        -37.9940   -18.4810    -0.9290 c3         1 MOL       0.138733
    300 H173       -36.1030   -18.7630    -1.9250 hc         1 MOL       0.081700
    301 H174       -36.1210   -19.3670    -0.2610 hc         1 MOL       0.081700
    302 O28        -38.5040   -19.7410    -1.3830 os         1 MOL      -0.432600
    303 H175       -38.3550   -18.2740     0.0890 h1         1 MOL       0.040367
    304 H176       -38.3170   -17.6750    -1.6040 h1         1 MOL       0.040367
    305 C94        -39.8590   -19.7100    -1.3630 c3         1 MOL       0.105067
    306 C95        -40.3240   -21.0290    -1.7920 c3         1 MOL       0.127067
    307 H175       -40.2440   -18.9380    -2.0430 h1         1 MOL       0.043700
    308 H176       -40.2150   -19.5180    -0.3410 h1         1 MOL       0.043700
    309 O29        -41.6640   -20.9000    -1.6920 os         1 MOL      -0.420600
    310 H177       -40.0110   -21.2520    -2.8240 h1         1 MOL       0.055367
    311 H178       -39.9540   -21.8040    -1.1020 h1         1 MOL       0.055367
    312 C96        -42.2740   -22.0390    -1.9600 c3         1 MOL       0.106733
    313 C97        -43.6290   -21.7210    -1.6920 c3         1 MOL       0.100067
    314 H179       -42.1280   -22.3440    -3.0030 h1         1 MOL       0.056867
    315 H180       -41.9440   -22.8360    -1.2830 h1         1 MOL       0.056867
    316 O30        -44.1580   -22.8850    -1.9130 os         1 MOL      -0.421933
    317 H181       -43.7670   -21.4020    -0.6480 h1         1 MOL       0.054033
    318 H182       -43.9860   -20.9480    -2.3890 h1         1 MOL       0.054033
    319 C98        -45.5060   -22.9130    -1.8480 c3         1 MOL       0.128733
    320 C99        -45.6530   -24.2780    -2.2560 c3         1 MOL       0.091067
    321 H183       -45.9490   -22.2350    -2.5950 h1         1 MOL       0.056200
    322 H184       -45.9090   -22.7150    -0.8400 h1         1 MOL       0.056200
    323 O31        -46.9530   -24.5840    -2.4400 os         1 MOL      -0.410933
    324 H185       -45.1430   -24.3660    -3.2280 h1         1 MOL       0.051200
    325 H186       -45.1760   -24.9490    -1.5340 h1         1 MOL       0.051200
    326 C100       -46.9180   -25.8150    -3.0620 c3         1 MOL       0.108400
    327 C101       -48.1870   -25.9870    -3.8600 c3         1 MOL       0.152800
    328 H187       -46.1080   -25.7830    -3.7800 h1         1 MOL       0.058033
    329 H188       -46.7380   -26.6370    -2.3460 h1         1 MOL       0.058033
    330 N8         -48.0620   -27.1830    -4.7180 nh         1 MOL      -0.735600
    331 H189       -48.2820   -25.1080    -4.5020 h1         1 MOL       0.082033
    332 H190       -49.0580   -26.0560    -3.1860 h1         1 MOL       0.082033
    333 H191       -48.6790   -27.9680    -4.5030 hn         1 MOL       0.435800
    334 C102        17.5810   -37.1890    -8.8480 ca         1 MOL       0.292600
    335 C103        18.2780   -37.4940   -10.0600 ca         1 MOL      -0.234000
    336 H192        18.1310   -38.4110   -10.5330 ha         1 MOL       0.154667
    337 C104        19.1080   -36.6210   -10.5730 ca         1 MOL       0.005667
    338 H193        19.6290   -36.8350   -11.4590 ha         1 MOL       0.179000
    339 C105        19.2900   -35.3730    -9.9310 ca         1 MOL      -0.247867
    340 C106        18.6820   -35.0530    -8.8410 ca         1 MOL       0.033000
    341 H194        18.8610   -34.1040    -8.3840 ha         1 MOL       0.197000
    342 C107        17.8370   -35.9800    -8.2670 ca         1 MOL      -0.265200
    343 N9          20.0560   -34.5940   -10.4360 no         1 MOL       0.326533
    344 O32         20.2280   -33.3450   -10.0340 o          1 MOL      -0.205833
    345 O33         20.6410   -34.9880   -11.3430 o          1 MOL      -0.205833
    346 N10         17.3760   -35.6350    -7.1250 no         1 MOL       0.316533
    347 O34         16.7390   -34.4590    -6.9330 o          1 MOL      -0.203000
    348 O35         17.3550   -36.4670    -6.3030 o          1 MOL      -0.203000
    349 C108       -11.3470    47.2990    22.8690 ca         1 MOL       0.292600
    350 C109        -9.8190    47.3370    23.2250 ca         1 MOL      -0.265200
    351 C110        -9.3340    48.4290    23.7430 ca         1 MOL       0.033000
    352 H195        -8.3030    48.4970    24.0000 ha         1 MOL       0.197000
    353 C111       -10.1520    49.4870    23.9550 ca         1 MOL      -0.247867
    354 C112       -11.4420    49.5040    23.6730 ca         1 MOL       0.005667
    355 H196       -12.0170    50.3770    23.8710 ha         1 MOL       0.179000
    356 C113       -12.0530    48.3800    23.1160 ca         1 MOL      -0.234000
    357 H197       -13.0720    48.3970    22.8940 ha         1 MOL       0.154667
    358 N11         -9.6670    50.4980    24.4410 no         1 MOL       0.326533
    359 O36        -10.4540    51.4820    24.6310 o          1 MOL      -0.205833
    360 O37         -8.5360    50.5960    24.7310 o          1 MOL      -0.205833
    361 N12         -8.8750    46.3710    23.0770 no         1 MOL       0.316533
    362 O38         -7.6400    46.5930    23.4400 o          1 MOL      -0.203000
    363 O39         -9.1350    45.3330    22.6310 o          1 MOL      -0.203000
    364 C114       -47.1370   -27.3180    -5.8570 ca         1 MOL       0.292600
    365 C115       -47.1220   -28.6180    -6.4560 ca         1 MOL      -0.234000
    366 H198       -47.7320   -29.3760    -6.0850 ha         1 MOL       0.154667
    367 C116       -46.3450   -28.8470    -7.4890 ca         1 MOL       0.005667
    368 H199       -46.3310   -29.7940    -7.9500 ha         1 MOL       0.179000
    369 C117       -45.5070   -27.8090    -7.9780 ca         1 MOL      -0.247867
    370 C118       -45.4750   -26.6320    -7.4490 ca         1 MOL       0.033000
    371 H200       -44.8380   -25.8770    -7.8520 ha         1 MOL       0.197000
    372 C119       -46.3170   -26.3640    -6.3900 ca         1 MOL      -0.265200
    373 N13        -44.8070   -28.0630    -8.9400 no         1 MOL       0.326533
    374 O40        -43.8260   -27.2920    -9.3880 o          1 MOL      -0.205833
    375 O41        -45.0040   -29.0770    -9.4360 o          1 MOL      -0.205833
    376 N14        -46.2960   -25.1090    -6.0090 no         1 MOL       0.316533
    377 O42        -47.4050   -24.4210    -6.2460 o          1 MOL      -0.203000
    378 O43        -45.3310   -24.6060    -5.5280 o          1 MOL      -0.203000
@<TRIPOS>BOND
     1     1    10 1   
     2     1    13 1   
     3     1    91 1   
     4     2    11 1   
     5     2    12 1   
     6     2    92 1   
     7     3    14 1   
     8     3    15 1   
     9     3    93 1   
    10     4     5 ar  
    11     4     9 ar  
    12     4    15 1   
    13     5     6 ar  
    14     5    88 1   
    15     6     7 ar  
    16     6    11 1   
    17     7     8 ar  
    18     7    89 1   
    19     8     9 ar  
    20     8    10 1   
    21     9    90 1   
    22    10    73 2   
    23    11    74 2   
    24    12    35 1   
    25    12   132 1   
    26    12   133 1   
    27    13    54 1   
    28    13   170 1   
    29    13   171 1   
    30    14    16 1   
    31    14    94 1   
    32    14    95 1   
    33    15    75 2   
    34    16    17 1   
    35    16    96 1   
    36    16    97 1   
    37    17    18 1   
    38    17    98 1   
    39    17    99 1   
    40    18    19 1   
    41    18   100 1   
    42    18   101 1   
    43    19    20 1   
    44    19   102 1   
    45    19   103 1   
    46    20    21 1   
    47    20   104 1   
    48    20   105 1   
    49    21    22 1   
    50    21   106 1   
    51    21   107 1   
    52    22    23 1   
    53    22   108 1   
    54    22   109 1   
    55    23    24 1   
    56    23   110 1   
    57    23   111 1   
    58    24    25 1   
    59    24   112 1   
    60    24   113 1   
    61    25    26 1   
    62    25   114 1   
    63    25   115 1   
    64    26    76 1   
    65    26   116 1   
    66    26   117 1   
    67    27    28 1   
    68    27    76 1   
    69    27   118 1   
    70    27   119 1   
    71    28    77 1   
    72    28   120 1   
    73    28   121 1   
    74    29    30 1   
    75    29    77 1   
    76    29   122 1   
    77    29   123 1   
    78    30    78 1   
    79    30   124 1   
    80    30   125 1   
    81    31    32 1   
    82    31    78 1   
    83    31   126 1   
    84    31   127 1   
    85    32    79 1   
    86    32   128 1   
    87    32   129 1   
    88    33    34 1   
    89    33    79 1   
    90    33   130 1   
    91    33   131 1   
    92    34   208 1   
    93    34   209 1   
    94    34   210 1   
    95    35    36 1   
    96    35   134 1   
    97    35   135 1   
    98    36    37 1   
    99    36   136 1   
   100    36   137 1   
   101    37    38 1   
   102    37   138 1   
   103    37   139 1   
   104    38    39 1   
   105    38   140 1   
   106    38   141 1   
   107    39    40 1   
   108    39   142 1   
   109    39   143 1   
   110    40    41 1   
   111    40   144 1   
   112    40   145 1   
   113    41    42 1   
   114    41   146 1   
   115    41   147 1   
   116    42    43 1   
   117    42   148 1   
   118    42   149 1   
   119    43    44 1   
   120    43   150 1   
   121    43   151 1   
   122    44    45 1   
   123    44   152 1   
   124    44   153 1   
   125    45    80 1   
   126    45   154 1   
   127    45   155 1   
   128    46    47 1   
   129    46    80 1   
   130    46   156 1   
   131    46   157 1   
   132    47    81 1   
   133    47   158 1   
   134    47   159 1   
   135    48    49 1   
   136    48    81 1   
   137    48   160 1   
   138    48   161 1   
   139    49    82 1   
   140    49   162 1   
   141    49   163 1   
   142    50    51 1   
   143    50    82 1   
   144    50   164 1   
   145    50   165 1   
   146    51    83 1   
   147    51   166 1   
   148    51   167 1   
   149    52    53 1   
   150    52    83 1   
   151    52   168 1   
   152    52   169 1   
   153    53   292 1   
   154    53   293 1   
   155    53   294 1   
   156    54    55 1   
   157    54   172 1   
   158    54   173 1   
   159    55    56 1   
   160    55   174 1   
   161    55   175 1   
   162    56    57 1   
   163    56   176 1   
   164    56   177 1   
   165    57    58 1   
   166    57   178 1   
   167    57   179 1   
   168    58    59 1   
   169    58   180 1   
   170    58   181 1   
   171    59    60 1   
   172    59   182 1   
   173    59   183 1   
   174    60    61 1   
   175    60   184 1   
   176    60   185 1   
   177    61    62 1   
   178    61   186 1   
   179    61   187 1   
   180    62    63 1   
   181    62   188 1   
   182    62   189 1   
   183    63    64 1   
   184    63   190 1   
   185    63   191 1   
   186    64    84 1   
   187    64   192 1   
   188    64   193 1   
   189    65    66 1   
   190    65    84 1   
   191    65   194 1   
   192    65   195 1   
   193    66    85 1   
   194    66   196 1   
   195    66   197 1   
   196    67    68 1   
   197    67    85 1   
   198    67   198 1   
   199    67   199 1   
   200    68    86 1   
   201    68   200 1   
   202    68   201 1   
   203    69    70 1   
   204    69    86 1   
   205    69   202 1   
   206    69   203 1   
   207    70    87 1   
   208    70   204 1   
   209    70   205 1   
   210    71    72 1   
   211    71    87 1   
   212    71   206 1   
   213    71   207 1   
   214    72   250 1   
   215    72   251 1   
   216    72   252 1   
   217   208   211 1   
   218   208   212 1   
   219   211   213 2   
   220   211   214 1   
   221   214   215 1   
   222   214   216 1   
   223   214   217 1   
   224   215   218 1   
   225   215   219 1   
   226   215   220 1   
   227   218   221 1   
   228   221   222 1   
   229   221   223 1   
   230   221   224 1   
   231   222   225 1   
   232   222   226 1   
   233   222   227 1   
   234   225   228 1   
   235   228   229 1   
   236   228   230 1   
   237   228   231 1   
   238   229   232 1   
   239   229   233 1   
   240   229   234 1   
   241   232   235 1   
   242   235   236 1   
   243   235   237 1   
   244   235   238 1   
   245   236   239 1   
   246   236   240 1   
   247   236   241 1   
   248   239   242 1   
   249   242   243 1   
   250   242   244 1   
   251   242   245 1   
   252   243   246 1   
   253   243   247 1   
   254   243   248 1   
   255   246   249 1   
   256   246   334 1   
   257   250   253 1   
   258   250   254 1   
   259   253   255 1   
   260   253   256 2   
   261   255   257 1   
   262   255   258 1   
   263   255   259 1   
   264   257   260 1   
   265   257   261 1   
   266   257   262 1   
   267   260   263 1   
   268   263   264 1   
   269   263   265 1   
   270   263   266 1   
   271   264   267 1   
   272   264   268 1   
   273   264   269 1   
   274   267   270 1   
   275   270   271 1   
   276   270   272 1   
   277   270   273 1   
   278   271   274 1   
   279   271   275 1   
   280   271   276 1   
   281   274   277 1   
   282   277   278 1   
   283   277   279 1   
   284   277   280 1   
   285   278   281 1   
   286   278   282 1   
   287   278   283 1   
   288   281   284 1   
   289   284   285 1   
   290   284   286 1   
   291   284   287 1   
   292   285   288 1   
   293   285   289 1   
   294   285   290 1   
   295   288   291 1   
   296   288   349 1   
   297   292   295 1   
   298   292   296 1   
   299   295   297 2   
   300   295   298 1   
   301   298   299 1   
   302   298   300 1   
   303   298   301 1   
   304   299   302 1   
   305   299   303 1   
   306   299   304 1   
   307   302   305 1   
   308   305   306 1   
   309   305   307 1   
   310   305   308 1   
   311   306   309 1   
   312   306   310 1   
   313   306   311 1   
   314   309   312 1   
   315   312   313 1   
   316   312   314 1   
   317   312   315 1   
   318   313   316 1   
   319   313   317 1   
   320   313   318 1   
   321   316   319 1   
   322   319   320 1   
   323   319   321 1   
   324   319   322 1   
   325   320   323 1   
   326   320   324 1   
   327   320   325 1   
   328   323   326 1   
   329   326   327 1   
   330   326   328 1   
   331   326   329 1   
   332   327   330 1   
   333   327   331 1   
   334   327   332 1   
   335   330   333 1   
   336   330   364 1   
   337   334   335 ar  
   338   334   342 ar  
   339   335   336 1   
   340   335   337 ar  
   341   337   338 1   
   342   337   339 ar  
   343   339   340 ar  
   344   339   343 1   
   345   340   341 1   
   346   340   342 ar  
   347   342   346 1   
   348   343   344 1   
   349   343   345 1   
   350   346   347 1   
   351   346   348 1   
   352   349   350 ar  
   353   349   356 ar  
   354   350   351 ar  
   355   350   361 1   
   356   351   352 1   
   357   351   353 ar  
   358   353   354 ar  
   359   353   358 1   
   360   354   355 1   
   361   354   356 ar  
   362   356   357 1   
   363   358   359 1   
   364   358   360 1   
   365   361   362 1   
   366   361   363 1   
   367   364   365 ar  
   368   364   372 ar  
   369   365   366 1   
   370   365   367 ar  
   371   367   368 1   
   372   367   369 ar  
   373   369   370 ar  
   374   369   373 1   
   375   370   371 1   
   376   370   372 ar  
   377   372   376 1   
   378   373   374 1   
   379   373   375 1   
   380   376   377 1   
   381   376   378 1   
@<TRIPOS>SUBSTRUCTURE
     1 MOL         1 TEMP              0 ****  ****    0 ROOT
