@<TRIPOS>MOLECULE
MOL
  378   381     1     0     0
SMALL
bcc


@<TRIPOS>ATOM
      1 N            9.7420    -9.9900    -8.1660 n         12 MOL      -0.562567
      2 N1           6.6520    -7.1960    -3.3960 n         12 MOL      -0.562567
      3 N2           3.3440    -6.9980    -7.2630 n         12 MOL      -0.562567
      4 C            5.2640    -8.4640    -7.2470 ca        12 MOL      -0.154933
      5 C1           5.5830    -8.2080    -5.9050 ca        12 MOL      -0.039000
      6 C2           6.8220    -8.5820    -5.3670 ca        12 MOL      -0.154933
      7 C3           7.7480    -9.2320    -6.1920 ca        12 MOL      -0.039000
      8 C4           7.4580    -9.4990    -7.5410 ca        12 MOL      -0.154933
      9 C5           6.2070    -9.1190    -8.0480 ca        12 MOL      -0.039000
     10 C6           8.4490   -10.1940    -8.4430 c         12 MOL       0.667367
     11 C7           7.1420    -8.3280    -3.9150 c         12 MOL       0.667367
     12 C8           6.7770    -6.8440    -1.9970 c3        12 MOL       0.083333
     13 C9          10.7730   -10.6040    -8.9450 c3        12 MOL       0.083333
     14 C10          2.0870    -6.5380    -7.7380 c3        12 MOL       0.083333
     15 C11          3.9290    -8.0610    -7.8260 c         12 MOL       0.667367
     16 C12          1.4720    -5.6110    -6.7070 c3        12 MOL      -0.105400
     17 C13          0.1380    -5.1250    -7.2260 c3        12 MOL      -0.077400
     18 C14         -0.4650    -4.2020    -6.1850 c3        12 MOL      -0.078733
     19 C15         -1.8010    -3.7040    -6.6940 c3        12 MOL      -0.079400
     20 C16         -2.3990    -2.7840    -5.6510 c3        12 MOL      -0.078733
     21 C17         -3.7290    -2.2860    -6.1700 c3        12 MOL      -0.079400
     22 C18         -4.3410    -1.3620    -5.1400 c3        12 MOL      -0.079400
     23 C19         -5.6660    -0.8710    -5.6860 c3        12 MOL      -0.078400
     24 C20         -6.3050     0.0620    -4.6790 c3        12 MOL      -0.078400
     25 C21         -7.6200     0.5370    -5.2620 c3        12 MOL      -0.084400
     26 C22         -8.2880     1.4750    -4.2830 c3        12 MOL       0.133400
     27 C23        -10.1460     2.7500    -4.0200 c3        12 MOL       0.128400
     28 C24        -11.3770     3.1570    -4.6810 c3        12 MOL       0.130400
     29 C25        -13.0560     4.4710    -4.1890 c3        12 MOL       0.130400
     30 C26        -13.4430     5.2840    -3.1050 c3        12 MOL       0.129400
     31 C27        -15.1860     6.5810    -2.7240 c3        12 MOL       0.130400
     32 C28        -16.3330     6.9110    -3.5140 c3        12 MOL       0.126400
     33 C29        -18.1720     8.1330    -3.5040 c3        12 MOL       0.106067
     34 C30        -18.9270     9.0770    -2.6470 c3        12 MOL       0.074000
     35 C31          8.2090    -6.7800    -1.4580 c3        12 MOL      -0.105400
     36 C32          8.0120    -6.3950    -0.0010 c3        12 MOL      -0.077400
     37 C33          9.3080    -6.2610     0.7750 c3        12 MOL      -0.078733
     38 C34          8.8560    -5.8520     2.1740 c3        12 MOL      -0.079400
     39 C35         10.0050    -5.6440     3.1490 c3        12 MOL      -0.078733
     40 C36          9.3290    -5.2250     4.4510 c3        12 MOL      -0.079400
     41 C37         10.3250    -4.9550     5.5680 c3        12 MOL      -0.079400
     42 C38          9.4800    -4.5310     6.7720 c3        12 MOL      -0.078400
     43 C39         10.3370    -4.2070     7.9910 c3        12 MOL      -0.078400
     44 C40          9.3690    -3.7840     9.0980 c3        12 MOL      -0.084400
     45 C41         10.1160    -3.4180    10.3760 c3        12 MOL       0.133400
     46 C42          9.7270    -2.6560    12.5130 c3        12 MOL       0.128400
     47 C43          8.6460    -2.2430    13.4130 c3        12 MOL       0.130400
     48 C44          8.4780    -1.4460    15.4550 c3        12 MOL       0.130400
     49 C45          9.3550    -1.1140    16.5080 c3        12 MOL       0.129400
     50 C46          9.1570    -0.2650    18.5140 c3        12 MOL       0.130400
     51 C47          8.0950     0.2150    19.3340 c3        12 MOL       0.126400
     52 C48          7.9230     1.1470    21.3620 c3        12 MOL       0.106067
     53 C49          8.8850     1.5060    22.4190 c3        12 MOL       0.074000
     54 C50         11.8970   -11.0520    -7.9950 c3        12 MOL      -0.105400
     55 C51         13.0320   -11.7260    -8.7790 c3        12 MOL      -0.077400
     56 C52         14.1120   -12.1600    -7.7750 c3        12 MOL      -0.078733
     57 C53         15.2730   -12.8610    -8.4970 c3        12 MOL      -0.079400
     58 C54         16.3100   -13.2860    -7.4470 c3        12 MOL      -0.078733
     59 C55         17.4780   -14.0090    -8.1280 c3        12 MOL      -0.079400
     60 C56         18.4870   -14.4380    -7.0530 c3        12 MOL      -0.079400
     61 C57         19.6570   -15.1840    -7.7160 c3        12 MOL      -0.078400
     62 C58         20.6590   -15.6300    -6.6390 c3        12 MOL      -0.078400
     63 C59         21.8100   -16.3890    -7.3150 c3        12 MOL      -0.084400
     64 C60         22.8220   -16.8610    -6.2540 c3        12 MOL       0.133400
     65 C61         24.7980   -18.0360    -5.9670 c3        12 MOL       0.128400
     66 C62         25.8490   -18.7800    -6.6950 c3        12 MOL       0.130400
     67 C63         27.7020   -19.9150    -6.2570 c3        12 MOL       0.130400
     68 C64         28.5000   -20.3030    -5.1410 c3        12 MOL       0.129400
     69 C65         30.3440   -21.4790    -4.8250 c3        12 MOL       0.130400
     70 C66         31.2900   -22.2020    -5.6620 c3        12 MOL       0.126400
     71 C67         33.1950   -23.4440    -5.5390 c3        12 MOL       0.106067
     72 C68         34.1800   -23.9830    -4.5220 c3        12 MOL       0.074000
     73 O            8.0730   -10.8730    -9.4000 o         12 MOL      -0.591433
     74 O1           7.8160    -9.1240    -3.2590 o         12 MOL      -0.591433
     75 O2           3.4280    -8.6730    -8.7700 o         12 MOL      -0.591433
     76 O5          -9.5080     1.9030    -4.8650 os        12 MOL      -0.427600
     77 O6         -11.9240     3.9860    -3.7650 os        12 MOL      -0.430600
     78 O7         -14.5740     5.7540    -3.5690 os        12 MOL      -0.430600
     79 O8         -17.0530     7.7560    -2.7810 os        12 MOL      -0.422267
     80 O9           9.1370    -3.0240    11.3370 os        12 MOL      -0.427600
     81 O10          9.3100    -1.8840    14.5420 os        12 MOL      -0.430600
     82 O11          8.5150    -0.6560    17.4190 os        12 MOL      -0.430600
     83 O12          8.7470     0.6080    20.4070 os        12 MOL      -0.422267
     84 O13         23.8790   -17.5780    -6.9050 os        12 MOL      -0.427600
     85 O14         26.7170   -19.2130    -5.7130 os        12 MOL      -0.430600
     86 O15         29.4620   -21.0030    -5.7290 os        12 MOL      -0.430600
     87 O16         32.2190   -22.7180    -4.8190 os        12 MOL      -0.422267
     88 H253         4.8920    -7.7350    -5.3020 ha        12 MOL       0.162000
     89 H254         8.6590    -9.5200    -5.8030 ha        12 MOL       0.162000
     90 H255         5.9770    -9.3270    -9.0320 ha        12 MOL       0.162000
     91 H250         9.9530    -9.4360    -7.3800 hn        12 MOL       0.303833
     92 H251         6.1560    -6.5960    -3.9990 hn        12 MOL       0.303833
     93 H9           6.2490    -7.6060    -1.4060 h1        12 MOL       0.065033
     94 H11          6.3000    -5.8660    -1.8380 h1        12 MOL       0.065033
     95 H13         11.1800    -9.8730    -9.6590 h1        12 MOL       0.065033
     96 H15         10.3590   -11.4610    -9.4970 h1        12 MOL       0.065033
     97 H252         3.8260    -6.5540    -6.5280 hn        12 MOL       0.303833
     98 H17          1.4330    -7.4010    -7.9310 h1        12 MOL       0.065033
     99 H18          2.2370    -5.9960    -8.6820 h1        12 MOL       0.065033
    100 H19          2.1350    -4.7510    -6.5370 hc        12 MOL       0.044367
    101 H20          1.3230    -6.1550    -5.7620 hc        12 MOL       0.044367
    102 H22         -0.5300    -5.9810    -7.3960 hc        12 MOL       0.043867
    103 H23          0.2850    -4.5790    -8.1680 hc        12 MOL       0.043867
    104 H24          0.2060    -3.3490    -6.0140 hc        12 MOL       0.040700
    105 H25         -0.6090    -4.7520    -5.2440 hc        12 MOL       0.040700
    106 H26         -2.4750    -4.5560    -6.8650 hc        12 MOL       0.041033
    107 H27         -1.6560    -3.1530    -7.6340 hc        12 MOL       0.041033
    108 H28         -1.7260    -1.9320    -5.4770 hc        12 MOL       0.040033
    109 H29         -2.5480    -3.3340    -4.7100 hc        12 MOL       0.040033
    110 H30         -4.4000    -3.1390    -6.3460 hc        12 MOL       0.040533
    111 H31         -3.5750    -1.7390    -7.1100 hc        12 MOL       0.040533
    112 H32         -3.6710    -0.5080    -4.9630 hc        12 MOL       0.039700
    113 H33         -4.5010    -1.9070    -4.1980 hc        12 MOL       0.039700
    114 H34         -6.3300    -1.7270    -5.8670 hc        12 MOL       0.041867
    115 H35         -5.4960    -0.3310    -6.6280 hc        12 MOL       0.041867
    116 H36         -5.6460     0.9220    -4.4960 hc        12 MOL       0.040200
    117 H37         -6.4850    -0.4730    -3.7350 hc        12 MOL       0.040200
    118 H38         -8.2740    -0.3260    -5.4490 hc        12 MOL       0.055200
    119 H39         -7.4310     1.0670    -6.2060 hc        12 MOL       0.055200
    120 H40         -7.6360     2.3430    -4.0950 h1        12 MOL       0.027700
    121 H41         -8.4850     0.9480    -3.3370 h1        12 MOL       0.027700
    122 H42         -9.5270     3.6360    -3.8220 h1        12 MOL       0.039700
    123 H43        -10.3850     2.2440    -3.0750 h1        12 MOL       0.039700
    124 H44        -12.0260     2.2880    -4.8730 h1        12 MOL       0.042200
    125 H45        -11.1580     3.6880    -5.6210 h1        12 MOL       0.042200
    126 H46        -13.7990     3.6790    -4.3610 h1        12 MOL       0.042200
    127 H47        -12.9220     5.0780    -5.0970 h1        12 MOL       0.042200
    128 H48        -12.7050     6.0810    -2.9320 h1        12 MOL       0.042867
    129 H49        -13.5870     4.6810    -2.1970 h1        12 MOL       0.042867
    130 H50        -14.5790     7.4760    -2.5140 h1        12 MOL       0.043200
    131 H51        -15.4750     6.0760    -1.7890 h1        12 MOL       0.043200
    132 H52        -16.9070     6.0010    -3.7370 h1        12 MOL       0.041867
    133 H53        -16.0090     7.3880    -4.4510 h1        12 MOL       0.041867
    134 H54        -18.7920     7.2520    -3.7360 h1        12 MOL       0.039700
    135 H55        -17.8690     8.6340    -4.4370 h1        12 MOL       0.039700
    136 H56          8.7940    -6.0130    -1.9860 hc        12 MOL       0.044367
    137 H57          8.7050    -7.7590    -1.5400 hc        12 MOL       0.044367
    138 H58          7.3910    -7.1610     0.4850 hc        12 MOL       0.043867
    139 H59          7.4860    -5.4310     0.0330 hc        12 MOL       0.043867
    140 H60          9.9420    -5.4830     0.3290 hc        12 MOL       0.040700
    141 H61          9.8470    -7.2180     0.8000 hc        12 MOL       0.040700
    142 H62          8.1930    -6.6320     2.5740 hc        12 MOL       0.041033
    143 H63          8.2950    -4.9100     2.0940 hc        12 MOL       0.041033
    144 H64         10.6730    -4.8470     2.7920 hc        12 MOL       0.040033
    145 H65         10.5720    -6.5760     3.2860 hc        12 MOL       0.040033
    146 H66          8.6440    -6.0240     4.7710 hc        12 MOL       0.040533
    147 H67          8.7520    -4.3080     4.2660 hc        12 MOL       0.040533
    148 H68         11.0080    -4.1430     5.2780 hc        12 MOL       0.039700
    149 H69         10.9000    -5.8640     5.7970 hc        12 MOL       0.039700
    150 H70          8.7870    -5.3460     7.0290 hc        12 MOL       0.041867
    151 H71          8.9020    -3.6370     6.5000 hc        12 MOL       0.041867
    152 H72         11.0240    -3.3810     7.7580 hc        12 MOL       0.040200
    153 H73         10.9100    -5.0920     8.3010 hc        12 MOL       0.040200
    154 H74          8.6760    -4.6110     9.3080 hc        12 MOL       0.055200
    155 H75          8.7980    -2.9090     8.7570 hc        12 MOL       0.055200
    156 H76         10.8040    -2.5820    10.1780 h1        12 MOL       0.027700
    157 H77         10.6830    -4.2870    10.7450 h1        12 MOL       0.027700
    158 H78         10.4090    -1.8100    12.3520 h1        12 MOL       0.039700
    159 H79         10.2750    -3.5000    12.9540 h1        12 MOL       0.039700
    160 H80          7.9540    -3.0780    13.6060 h1        12 MOL       0.042200
    161 H81          8.1000    -1.3860    12.9870 h1        12 MOL       0.042200
    162 H82          7.7700    -2.2240    15.7700 h1        12 MOL       0.042200
    163 H83          7.9390    -0.5510    15.1120 h1        12 MOL       0.042200
    164 H84          9.8940    -2.0060    16.8590 h1        12 MOL       0.042867
    165 H85         10.0630    -0.3380    16.1840 h1        12 MOL       0.042867
    166 H86          9.8640     0.5500    18.2970 h1        12 MOL       0.043200
    167 H87          9.6760    -1.1030    19.0030 h1        12 MOL       0.043200
    168 H88          7.3850    -0.5920    19.5610 h1        12 MOL       0.041867
    169 H89          7.5830     1.0540    18.8430 h1        12 MOL       0.041867
    170 H90          7.1940     0.4060    21.7250 h1        12 MOL       0.039700
    171 H91          7.4070     2.0420    20.9800 h1        12 MOL       0.039700
    172 H92         11.4890   -11.7700    -7.2680 hc        12 MOL       0.044367
    173 H93         12.2950   -10.1770    -7.4610 hc        12 MOL       0.044367
    174 H94         13.4550   -11.0190    -9.5060 hc        12 MOL       0.043867
    175 H95         12.6410   -12.6080    -9.3070 hc        12 MOL       0.043867
    176 H96         13.6680   -12.8580    -7.0500 hc        12 MOL       0.040700
    177 H97         14.4930   -11.2760    -7.2440 hc        12 MOL       0.040700
    178 H98         15.7360   -12.1730    -9.2200 hc        12 MOL       0.041033
    179 H99         14.8980   -13.7510    -9.0220 hc        12 MOL       0.041033
    180 H100        15.8350   -13.9670    -6.7260 hc        12 MOL       0.040033
    181 H101        16.6840   -12.3980    -6.9190 hc        12 MOL       0.040033
    182 H102        17.9640   -13.3360    -8.8480 hc        12 MOL       0.040533
    183 H103        17.1010   -14.8990    -8.6520 hc        12 MOL       0.040533
    184 H104        17.9890   -15.1060    -6.3360 hc        12 MOL       0.039700
    185 H105        18.8640   -13.5490    -6.5270 hc        12 MOL       0.039700
    186 H106        20.1590   -14.5220    -8.4340 hc        12 MOL       0.041867
    187 H107        19.2720   -16.0700    -8.2410 hc        12 MOL       0.041867
    188 H108        20.1540   -16.2940    -5.9230 hc        12 MOL       0.040200
    189 H109        21.0530   -14.7500    -6.1110 hc        12 MOL       0.040200
    190 H110        22.3130   -15.7270    -8.0350 hc        12 MOL       0.055200
    191 H111        21.4040   -17.2640    -7.8440 hc        12 MOL       0.055200
    192 H112        22.3150   -17.5240    -5.5370 h1        12 MOL       0.027700
    193 H113        23.2350   -15.9910    -5.7220 h1        12 MOL       0.027700
    194 H114        24.3050   -18.7090    -5.2520 h1        12 MOL       0.039700
    195 H115        25.2500   -17.1900    -5.4300 h1        12 MOL       0.039700
    196 H116        26.3650   -18.1190    -7.4090 h1        12 MOL       0.042200
    197 H117        25.4080   -19.6380    -7.2260 h1        12 MOL       0.042200
    198 H118        28.2910   -19.3010    -6.9520 h1        12 MOL       0.042200
    199 H119        27.3140   -20.8060    -6.7710 h1        12 MOL       0.042200
    200 H120        27.9180   -20.9270    -4.4460 h1        12 MOL       0.042867
    201 H121        28.9020   -19.4210    -4.6220 h1        12 MOL       0.042867
    202 H122        29.8520   -22.1610    -4.1120 h1        12 MOL       0.043200
    203 H123        30.8430   -20.6580    -4.2870 h1        12 MOL       0.043200
    204 H124        31.7570   -21.5090    -6.3770 h1        12 MOL       0.041867
    205 H125        30.7690   -23.0040    -6.2030 h1        12 MOL       0.041867
    206 H126        33.7110   -22.7800    -6.2500 h1        12 MOL       0.039700
    207 H127        32.7200   -24.2770    -6.0820 h1        12 MOL       0.039700
    208 N3          35.2060   -24.7360    -5.1620 n         12 MOL      -0.572567
    209 H           33.6570   -24.6310    -3.8030 h1        12 MOL       0.074367
    210 H128        34.6400   -23.1560    -3.9620 h1        12 MOL       0.074367
    211 C69         36.2140   -25.2140    -4.4330 c         12 MOL       0.657433
    212 H129        35.1760   -24.9040    -6.1390 hn        12 MOL       0.307167
    213 O17         36.2410   -24.9950    -3.2170 o         12 MOL      -0.601433
    214 H214        36.9220   -26.9950    -5.3820 hc        12 MOL       0.079033
    215 C70         38.4750   -26.2160    -4.0560 c3        12 MOL       0.140733
    216 C216        37.3250   -26.0170    -5.0720 c3        12 MOL      -0.159400
    217 O18         39.5430   -26.9940    -4.6290 os        12 MOL      -0.432600
    218 H130        38.0800   -26.7370    -3.1730 h1        12 MOL       0.044867
    219 H131        38.8610   -25.2320    -3.7530 h1        12 MOL       0.044867
    220 C71         40.5590   -27.1500    -3.6370 c3        12 MOL       0.119067
    221 C72         41.7200   -28.0000    -4.2030 c3        12 MOL       0.127733
    222 H132        40.1300   -27.6570    -2.7580 h1        12 MOL       0.041200
    223 H133        40.9350   -26.1580    -3.3400 h1        12 MOL       0.041200
    224 O19         42.7310   -28.1660    -3.2100 os        12 MOL      -0.427933
    225 H134        41.3380   -28.9900    -4.4980 h1        12 MOL       0.048867
    226 H135        42.1520   -27.4980    -5.0830 h1        12 MOL       0.048867
    227 C80         43.7640   -28.9700    -3.7690 c3        12 MOL       0.116067
    228 C81         44.8870   -29.2070    -2.7300 c3        12 MOL       0.126733
    229 H136        44.1810   -28.4640    -4.6530 h1        12 MOL       0.043533
    230 H137        43.3380   -29.9400    -4.0710 h1        12 MOL       0.043533
    231 O20         45.8890   -30.0240    -3.3200 os        12 MOL      -0.423933
    232 H138        44.4720   -29.7200    -1.8480 h1        12 MOL       0.051033
    233 H139        45.3260   -28.2450    -2.4240 h1        12 MOL       0.051033
    234 C82         46.9210   -30.2740    -2.3700 c3        12 MOL       0.129733
    235 C83         47.9750   -31.1690    -3.0200 c3        12 MOL       0.115733
    236 H140        46.4880   -30.7730    -1.4900 h1        12 MOL       0.046867
    237 H141        47.3800   -29.3250    -2.0610 h1        12 MOL       0.046867
    238 O21         49.0290   -31.4520    -2.0800 os        12 MOL      -0.437267
    239 H142        48.3960   -30.6750    -3.9110 h1        12 MOL       0.046700
    240 H143        47.4910   -32.1140    -3.3160 h1        12 MOL       0.046700
    241 C84         49.9270   -32.4180    -2.6460 c3        12 MOL       0.107400
    242 C85         51.0250   -32.8240    -1.5850 c3        12 MOL       0.173800
    243 H144        49.3400   -33.3110    -2.9070 h1        12 MOL       0.050033
    244 H145        50.4000   -32.0100    -3.5530 h1        12 MOL       0.050033
    245 N4          51.9530   -33.9110    -2.0660 nh        12 MOL      -0.715933
    246 H147        50.5040   -33.1890    -0.6910 h1        12 MOL       0.077533
    247 H148        51.6120   -31.9340    -1.3220 h1        12 MOL       0.077533
    248 H149        52.9130   -33.6410    -2.1760 hn        12 MOL       0.416800
    249 N5           8.2060     2.0970    23.5150 n         12 MOL      -0.572567
    250 H150         9.6280     2.2100    22.0170 h1        12 MOL       0.074367
    251 H151         9.3940     0.5910    22.7530 h1        12 MOL       0.074367
    252 C86          8.8540     2.1910    24.6660 c         12 MOL       0.657433
    253 H152         7.3360     2.6310    23.3810 hn        12 MOL       0.307167
    254 O22          9.9590     1.6490    24.7780 o         12 MOL      -0.601433
    255 C87          8.2820     2.9500    25.8230 c3        12 MOL      -0.159400
    256 C88          9.1260     2.6570    27.0560 c3        12 MOL       0.140733
    257 H153         7.2240     2.6790    25.9660 hc        12 MOL       0.079033
    258 H154         8.3160     4.0270    25.5900 hc        12 MOL       0.079033
    259 O23          8.6460     3.4050    28.1810 os        12 MOL      -0.432600
    260 H155        10.1650     2.9460    26.8450 h1        12 MOL       0.044867
    261 H156         9.0860     1.5800    27.2750 h1        12 MOL       0.044867
    262 C89          9.4550     3.1150    29.2470 c3        12 MOL       0.119067
    263 C90          9.0360     3.9350    30.3840 c3        12 MOL       0.127733
    264 H157        10.4980     3.3610    29.0030 h1        12 MOL       0.041200
    265 H158         9.3790     2.0510    29.5080 h1        12 MOL       0.041200
    266 O24          9.9230     3.5650    31.3500 os        12 MOL      -0.427933
    267 H159         7.9990     3.7120    30.6840 h1        12 MOL       0.048867
    268 H160         9.1430     5.0040    30.1400 h1        12 MOL       0.048867
    269 C91          9.7530     4.2900    32.4290 c3        12 MOL       0.116067
    270 C92         10.7400     3.8000    33.3310 c3        12 MOL       0.126733
    271 H161         8.7480     4.1540    32.8540 h1        12 MOL       0.043533
    272 H162         9.9340     5.3540    32.2190 h1        12 MOL       0.043533
    273 O25         10.5030     4.6130    34.3300 os        12 MOL      -0.423933
    274 H163        11.7530     3.9370    32.9250 h1        12 MOL       0.051033
    275 H164        10.5580     2.7470    33.5900 h1        12 MOL       0.051033
    276 C93         11.2680     4.4260    35.4280 c3        12 MOL       0.129733
    277 C94         10.7540     5.5350    36.2160 c3        12 MOL       0.115733
    278 H165        12.3400     4.5520    35.2140 h1        12 MOL       0.046867
    279 H166        11.0740     3.4490    35.8990 h1        12 MOL       0.046867
    280 O26         11.3750     5.5600    37.4400 os        12 MOL      -0.437267
    281 H167         9.6710     5.3960    36.3490 h1        12 MOL       0.046700
    282 H168        10.9390     6.4750    35.6710 h1        12 MOL       0.046700
    283 C95         10.8460     6.6450    38.2180 c3        12 MOL       0.107400
    284 C96         11.4170     6.5540    39.6640 c3        12 MOL       0.173800
    285 H169         9.7520     6.5450    38.2650 h1        12 MOL       0.050033
    286 H170        11.1120     7.6060    37.7520 h1        12 MOL       0.050033
    287 N6          10.9060     7.6330    40.6050 nh        12 MOL      -0.715933
    288 H171        12.5070     6.6220    39.6120 h1        12 MOL       0.077533
    289 H172        11.1380     5.5710    40.0670 h1        12 MOL       0.077533
    290 H173        11.6250     8.2320    40.9660 hn        12 MOL       0.416800
    291 N7         -20.0570     9.4840    -3.3570 n         12 MOL      -0.572567
    292 H174       -18.3100     9.9520    -2.3980 h1        12 MOL       0.074367
    293 H175       -19.2290     8.5850    -1.7130 h1        12 MOL       0.074367
    294 C97        -20.8300    10.4410    -2.8790 c         12 MOL       0.657433
    295 H176       -20.2770     9.0620    -4.2300 hn        12 MOL       0.307167
    296 O27        -20.5660    10.9750    -1.7960 o         12 MOL      -0.601433
    297 C98        -22.0200    10.8700    -3.6630 c3        12 MOL      -0.159400
    298 C99        -22.9940    11.5770    -2.7700 c3        12 MOL       0.140733
    299 H177       -22.4750     9.9970    -4.1540 hc        12 MOL       0.079033
    300 H178       -21.6910    11.5610    -4.4530 hc        12 MOL       0.079033
    301 O28        -24.1000    11.9830    -3.5690 os        12 MOL      -0.432600
    302 H179       -22.5080    12.4560    -2.3200 h1        12 MOL       0.044867
    303 H180       -23.3260    10.8920    -1.9770 h1        12 MOL       0.044867
    304 C100       -24.9850    12.5900    -2.7770 c3        12 MOL       0.119067
    305 C101       -26.1080    13.0150    -3.6100 c3        12 MOL       0.127733
    306 H181       -24.5330    13.4720    -2.3010 h1        12 MOL       0.041200
    307 H182       -25.3430    11.8950    -2.0060 h1        12 MOL       0.041200
    308 O29        -26.8840    13.5760    -2.6790 os        12 MOL      -0.427933
    309 H183       -25.7850    13.7460    -4.3690 h1        12 MOL       0.048867
    310 H184       -26.6040    12.1540    -4.0850 h1        12 MOL       0.048867
    311 C102       -27.9870    14.0910    -3.1730 c3        12 MOL       0.116067
    312 C103       -28.6030    14.5590    -1.9740 c3        12 MOL       0.126733
    313 H185       -28.6150    13.3320    -3.6620 h1        12 MOL       0.043533
    314 H186       -27.7730    14.9210    -3.8610 h1        12 MOL       0.043533
    315 O30        -29.6780    15.0800    -2.4390 os        12 MOL      -0.423933
    316 H187       -27.9700    15.3080    -1.4820 h1        12 MOL       0.051033
    317 H188       -28.8100    13.7200    -1.2980 h1        12 MOL       0.051033
    318 C104       -30.5480    15.6000    -1.5150 c3        12 MOL       0.129733
    319 C105       -31.4920    16.1090    -2.5050 c3        12 MOL       0.115733
    320 H189       -30.0890    16.4130    -0.9300 h1        12 MOL       0.046867
    321 H190       -30.9870    14.8310    -0.8650 h1        12 MOL       0.046867
    322 O31        -32.6030    16.7950    -2.0140 os        12 MOL      -0.437267
    323 H191       -31.8400    15.2580    -3.1130 h1        12 MOL       0.046700
    324 H192       -30.9260    16.7950    -3.1510 h1        12 MOL       0.046700
    325 C106       -33.1720    17.2460    -3.2240 c3        12 MOL       0.107400
    326 C107       -34.4550    18.0750    -3.1770 c3        12 MOL       0.173800
    327 H193       -33.3730    16.3620    -3.8340 h1        12 MOL       0.050033
    328 H194       -32.4120    17.8550    -3.7090 h1        12 MOL       0.050033
    329 N8         -34.9610    18.6280    -4.5550 nh        12 MOL      -0.715933
    330 H195       -34.2710    18.9520    -2.5320 h1        12 MOL       0.077533
    331 H196       -35.2680    17.4900    -2.7100 h1        12 MOL       0.077533
    332 H197       -35.8240    19.1440    -4.4890 hn        12 MOL       0.416800
    333 H146        37.6670   -25.5050    -5.9860 hc        12 MOL       0.079033
    334 C108        51.6320   -35.3180    -2.3080 ca        12 MOL       0.245933
    335 C109        50.2790   -36.0370    -2.2070 ca        12 MOL      -0.221200
    336 C110        50.1580   -37.2830    -2.5580 ca        12 MOL       0.009000
    337 H6          49.2160   -37.7850    -2.4930 ha        12 MOL       0.196333
    338 C111        51.2540   -37.9490    -2.9510 ca        12 MOL      -0.223200
    339 C112        52.4560   -37.4050    -3.0330 ca        12 MOL      -0.011000
    340 H10         53.2670   -37.9910    -3.3410 ha        12 MOL       0.179333
    341 C113        52.6500   -36.0460    -2.7200 ca        12 MOL      -0.207333
    342 H12         53.5940   -35.6190    -2.8240 ha        12 MOL       0.157667
    343 N9          51.1510   -39.1250    -3.2230 no        12 MOL       0.323533
    344 O32         50.0020   -39.7750    -3.2900 o         12 MOL      -0.202333
    345 O33         52.1330   -39.6880    -3.4360 o         12 MOL      -0.202333
    346 N10         49.1930   -35.5030    -1.7780 no        12 MOL       0.318867
    347 O34         48.1140   -35.5270    -2.5030 o         12 MOL      -0.195000
    348 O35         49.2250   -34.7340    -0.9130 o         12 MOL      -0.195000
    349 C114         9.5380     7.9060    41.0980 ca        12 MOL       0.245933
    350 C115         9.5010     9.0920    41.9220 ca        12 MOL      -0.207333
    351 H4          10.3760     9.6220    42.1110 ha        12 MOL       0.157667
    352 C116         8.3700     9.5050    42.4370 ca        12 MOL      -0.011000
    353 H6           8.3350    10.3690    43.0430 ha        12 MOL       0.179333
    354 C117         7.1940     8.7890    42.1670 ca        12 MOL      -0.223200
    355 C118         7.1680     7.7300    41.4270 ca        12 MOL       0.009000
    356 H10          6.2420     7.2200    41.2560 ha        12 MOL       0.196333
    357 C119         8.3510     7.2500    40.8880 ca        12 MOL      -0.221200
    358 N11          6.1680     9.1890    42.6590 no        12 MOL       0.323533
    359 O36          4.9960     8.6450    42.4220 o         12 MOL      -0.202333
    360 O37          6.2500    10.1080    43.3670 o         12 MOL      -0.202333
    361 N12          8.1590     6.1340    40.2030 no        12 MOL       0.318867
    362 O38          9.0550     5.2700    40.1030 o         12 MOL      -0.195000
    363 O39          7.1450     5.9100    39.6830 o         12 MOL      -0.195000
    364 C120       -34.2110    18.7920    -5.8110 ca        12 MOL       0.245933
    365 C121       -33.1870    17.8660    -6.4480 ca        12 MOL      -0.221200
    366 C122       -32.5180    18.2110    -7.5070 ca        12 MOL       0.009000
    367 H6         -31.8170    17.5500    -7.9620 ha        12 MOL       0.196333
    368 C123       -32.8070    19.3880    -8.0790 ca        12 MOL      -0.223200
    369 C124       -33.7330    20.2190    -7.6220 ca        12 MOL      -0.011000
    370 H10        -33.9220    21.1150    -8.1270 ha        12 MOL       0.179333
    371 C125       -34.4500    19.9190    -6.4470 ca        12 MOL      -0.207333
    372 H12        -35.1400    20.6030    -6.0690 ha        12 MOL       0.157667
    373 N13        -32.2230    19.6950    -9.0960 no        12 MOL       0.323533
    374 O40        -32.6420    20.6930    -9.6620 o         12 MOL      -0.202333
    375 O41        -31.3030    19.1120    -9.5380 o         12 MOL      -0.202333
    376 N14        -32.9980    16.6860    -6.0440 no        12 MOL       0.318867
    377 O42        -31.7680    16.2250    -5.7950 o         12 MOL      -0.195000
    378 O43        -33.9550    16.0910    -5.7100 o         12 MOL      -0.195000
@<TRIPOS>BOND
     1     1    10 1   
     2     1    13 1   
     3     1    91 1   
     4     2    11 1   
     5     2    12 1   
     6     2    92 1   
     7     3    14 1   
     8     3    15 1   
     9     3    97 1   
    10     4     5 ar  
    11     4     9 ar  
    12     4    15 1   
    13     5     6 ar  
    14     5    88 1   
    15     6     7 ar  
    16     6    11 1   
    17     7     8 ar  
    18     7    89 1   
    19     8     9 ar  
    20     8    10 1   
    21     9    90 1   
    22    10    73 2   
    23    11    74 2   
    24    12    35 1   
    25    12    93 1   
    26    12    94 1   
    27    13    54 1   
    28    13    95 1   
    29    13    96 1   
    30    14    16 1   
    31    14    98 1   
    32    14    99 1   
    33    15    75 2   
    34    16    17 1   
    35    16   100 1   
    36    16   101 1   
    37    17    18 1   
    38    17   102 1   
    39    17   103 1   
    40    18    19 1   
    41    18   104 1   
    42    18   105 1   
    43    19    20 1   
    44    19   106 1   
    45    19   107 1   
    46    20    21 1   
    47    20   108 1   
    48    20   109 1   
    49    21    22 1   
    50    21   110 1   
    51    21   111 1   
    52    22    23 1   
    53    22   112 1   
    54    22   113 1   
    55    23    24 1   
    56    23   114 1   
    57    23   115 1   
    58    24    25 1   
    59    24   116 1   
    60    24   117 1   
    61    25    26 1   
    62    25   118 1   
    63    25   119 1   
    64    26    76 1   
    65    26   120 1   
    66    26   121 1   
    67    27    28 1   
    68    27    76 1   
    69    27   122 1   
    70    27   123 1   
    71    28    77 1   
    72    28   124 1   
    73    28   125 1   
    74    29    30 1   
    75    29    77 1   
    76    29   126 1   
    77    29   127 1   
    78    30    78 1   
    79    30   128 1   
    80    30   129 1   
    81    31    32 1   
    82    31    78 1   
    83    31   130 1   
    84    31   131 1   
    85    32    79 1   
    86    32   132 1   
    87    32   133 1   
    88    33    34 1   
    89    33    79 1   
    90    33   134 1   
    91    33   135 1   
    92    34   291 1   
    93    34   292 1   
    94    34   293 1   
    95    35    36 1   
    96    35   136 1   
    97    35   137 1   
    98    36    37 1   
    99    36   138 1   
   100    36   139 1   
   101    37    38 1   
   102    37   140 1   
   103    37   141 1   
   104    38    39 1   
   105    38   142 1   
   106    38   143 1   
   107    39    40 1   
   108    39   144 1   
   109    39   145 1   
   110    40    41 1   
   111    40   146 1   
   112    40   147 1   
   113    41    42 1   
   114    41   148 1   
   115    41   149 1   
   116    42    43 1   
   117    42   150 1   
   118    42   151 1   
   119    43    44 1   
   120    43   152 1   
   121    43   153 1   
   122    44    45 1   
   123    44   154 1   
   124    44   155 1   
   125    45    80 1   
   126    45   156 1   
   127    45   157 1   
   128    46    47 1   
   129    46    80 1   
   130    46   158 1   
   131    46   159 1   
   132    47    81 1   
   133    47   160 1   
   134    47   161 1   
   135    48    49 1   
   136    48    81 1   
   137    48   162 1   
   138    48   163 1   
   139    49    82 1   
   140    49   164 1   
   141    49   165 1   
   142    50    51 1   
   143    50    82 1   
   144    50   166 1   
   145    50   167 1   
   146    51    83 1   
   147    51   168 1   
   148    51   169 1   
   149    52    53 1   
   150    52    83 1   
   151    52   170 1   
   152    52   171 1   
   153    53   249 1   
   154    53   250 1   
   155    53   251 1   
   156    54    55 1   
   157    54   172 1   
   158    54   173 1   
   159    55    56 1   
   160    55   174 1   
   161    55   175 1   
   162    56    57 1   
   163    56   176 1   
   164    56   177 1   
   165    57    58 1   
   166    57   178 1   
   167    57   179 1   
   168    58    59 1   
   169    58   180 1   
   170    58   181 1   
   171    59    60 1   
   172    59   182 1   
   173    59   183 1   
   174    60    61 1   
   175    60   184 1   
   176    60   185 1   
   177    61    62 1   
   178    61   186 1   
   179    61   187 1   
   180    62    63 1   
   181    62   188 1   
   182    62   189 1   
   183    63    64 1   
   184    63   190 1   
   185    63   191 1   
   186    64    84 1   
   187    64   192 1   
   188    64   193 1   
   189    65    66 1   
   190    65    84 1   
   191    65   194 1   
   192    65   195 1   
   193    66    85 1   
   194    66   196 1   
   195    66   197 1   
   196    67    68 1   
   197    67    85 1   
   198    67   198 1   
   199    67   199 1   
   200    68    86 1   
   201    68   200 1   
   202    68   201 1   
   203    69    70 1   
   204    69    86 1   
   205    69   202 1   
   206    69   203 1   
   207    70    87 1   
   208    70   204 1   
   209    70   205 1   
   210    71    72 1   
   211    71    87 1   
   212    71   206 1   
   213    71   207 1   
   214    72   208 1   
   215    72   209 1   
   216    72   210 1   
   217   208   211 1   
   218   208   212 1   
   219   211   213 2   
   220   211   216 1   
   221   214   216 1   
   222   215   216 1   
   223   215   217 1   
   224   215   218 1   
   225   215   219 1   
   226   216   333 1   
   227   217   220 1   
   228   220   221 1   
   229   220   222 1   
   230   220   223 1   
   231   221   224 1   
   232   221   225 1   
   233   221   226 1   
   234   224   227 1   
   235   227   228 1   
   236   227   229 1   
   237   227   230 1   
   238   228   231 1   
   239   228   232 1   
   240   228   233 1   
   241   231   234 1   
   242   234   235 1   
   243   234   236 1   
   244   234   237 1   
   245   235   238 1   
   246   235   239 1   
   247   235   240 1   
   248   238   241 1   
   249   241   242 1   
   250   241   243 1   
   251   241   244 1   
   252   242   245 1   
   253   242   246 1   
   254   242   247 1   
   255   245   248 1   
   256   245   334 1   
   257   249   252 1   
   258   249   253 1   
   259   252   254 2   
   260   252   255 1   
   261   255   256 1   
   262   255   257 1   
   263   255   258 1   
   264   256   259 1   
   265   256   260 1   
   266   256   261 1   
   267   259   262 1   
   268   262   263 1   
   269   262   264 1   
   270   262   265 1   
   271   263   266 1   
   272   263   267 1   
   273   263   268 1   
   274   266   269 1   
   275   269   270 1   
   276   269   271 1   
   277   269   272 1   
   278   270   273 1   
   279   270   274 1   
   280   270   275 1   
   281   273   276 1   
   282   276   277 1   
   283   276   278 1   
   284   276   279 1   
   285   277   280 1   
   286   277   281 1   
   287   277   282 1   
   288   280   283 1   
   289   283   284 1   
   290   283   285 1   
   291   283   286 1   
   292   284   287 1   
   293   284   288 1   
   294   284   289 1   
   295   287   290 1   
   296   287   349 1   
   297   291   294 1   
   298   291   295 1   
   299   294   296 2   
   300   294   297 1   
   301   297   298 1   
   302   297   299 1   
   303   297   300 1   
   304   298   301 1   
   305   298   302 1   
   306   298   303 1   
   307   301   304 1   
   308   304   305 1   
   309   304   306 1   
   310   304   307 1   
   311   305   308 1   
   312   305   309 1   
   313   305   310 1   
   314   308   311 1   
   315   311   312 1   
   316   311   313 1   
   317   311   314 1   
   318   312   315 1   
   319   312   316 1   
   320   312   317 1   
   321   315   318 1   
   322   318   319 1   
   323   318   320 1   
   324   318   321 1   
   325   319   322 1   
   326   319   323 1   
   327   319   324 1   
   328   322   325 1   
   329   325   326 1   
   330   325   327 1   
   331   325   328 1   
   332   326   329 1   
   333   326   330 1   
   334   326   331 1   
   335   329   332 1   
   336   329   364 1   
   337   334   335 ar  
   338   334   341 ar  
   339   335   336 ar  
   340   335   346 1   
   341   336   337 1   
   342   336   338 ar  
   343   338   339 ar  
   344   338   343 1   
   345   339   340 1   
   346   339   341 ar  
   347   341   342 1   
   348   343   344 1   
   349   343   345 1   
   350   346   347 1   
   351   346   348 1   
   352   349   350 ar  
   353   349   357 ar  
   354   350   351 1   
   355   350   352 ar  
   356   352   353 1   
   357   352   354 ar  
   358   354   355 ar  
   359   354   358 1   
   360   355   356 1   
   361   355   357 ar  
   362   357   361 1   
   363   358   359 1   
   364   358   360 1   
   365   361   362 1   
   366   361   363 1   
   367   364   365 ar  
   368   364   371 ar  
   369   365   366 ar  
   370   365   376 1   
   371   366   367 1   
   372   366   368 ar  
   373   368   369 ar  
   374   368   373 1   
   375   369   370 1   
   376   369   371 ar  
   377   371   372 1   
   378   373   374 1   
   379   373   375 1   
   380   376   377 1   
   381   376   378 1   
@<TRIPOS>SUBSTRUCTURE
     1 MOL         1 TEMP              0 ****  ****    0 ROOT
