@<TRIPOS>MOLECULE
MOL
  219   219     1     0     0
SMALL
bcc


@<TRIPOS>ATOM
      1 N          -10.1350     3.7490     7.0260 n          1 MOL      -0.559567
      2 N1         -10.3610    -2.3810     4.9960 n          1 MOL      -0.559567
      3 N2          -5.3180    -1.5090     5.6180 n          1 MOL      -0.559567
      4 C           -7.0610     0.0520     6.2810 ca         1 MOL      -0.159267
      5 C1          -8.1310    -0.8150     6.0080 ca         1 MOL      -0.037000
      6 C2          -9.4530    -0.3420     5.9550 ca         1 MOL      -0.159267
      7 C3          -9.6890     1.0210     6.1840 ca         1 MOL      -0.037000
      8 C4          -8.6410     1.9110     6.4730 ca         1 MOL      -0.159267
      9 C5          -7.3350     1.4060     6.5130 ca         1 MOL      -0.037000
     10 C6          -8.8830     3.3850     6.7220 c          1 MOL       0.669367
     11 C7         -10.6190    -1.2680     5.6910 c          1 MOL       0.669367
     12 C8         -11.2560    -3.4240     4.6740 c3         1 MOL       0.084333
     13 C9         -10.5900     5.1160     7.2700 c3         1 MOL       0.084333
     14 C10         -4.0770    -1.8730     5.6520 c3         1 MOL       0.084333
     15 C11         -5.6360    -0.4410     6.3630 c          1 MOL       0.669367
     16 C12         -4.0250    -3.1280     5.0730 c3         1 MOL      -0.105067
     17 C13         -2.6560    -3.4140     5.1100 c3         1 MOL      -0.077400
     18 C14         -2.5840    -4.6620     4.5190 c3         1 MOL      -0.078400
     19 C15         -1.2190    -4.9730     4.4980 c3         1 MOL      -0.079400
     20 C16         -1.2540    -6.2250     3.8840 c3         1 MOL      -0.078733
     21 C17          0.0670    -6.6700     3.7620 c3         1 MOL      -0.079400
     22 C18         -0.1510    -7.9180     3.1380 c3         1 MOL      -0.079400
     23 C19          1.0990    -8.4940     2.9340 c3         1 MOL      -0.078400
     24 C20          0.7610    -9.7350     2.3180 c3         1 MOL      -0.078400
     25 C21          2.0020   -10.3600     2.0910 c3         1 MOL      -0.092067
     26 C22          1.7210   -11.6180     1.4860 c3         1 MOL       0.129733
     27 C23          2.9120   -13.2770     0.8050 c3         1 MOL       0.104067
     28 C24          4.2840   -13.6380     0.7190 c3         1 MOL       0.116067
     29 C25          5.3200   -15.3620     0.0130 c3         1 MOL       0.104400
     30 C26          4.9030   -16.5680    -0.5400 c3         1 MOL       0.098067
     31 C27          5.8750   -18.3220    -1.2870 c3         1 MOL       0.126067
     32 C28          7.2180   -18.7250    -1.4150 c3         1 MOL       0.105733
     33 C29          8.3000   -20.4650    -2.1540 c3         1 MOL       0.093067
     34 C30          7.9150   -21.7420    -2.7480 c3         1 MOL       0.125067
     35 C31        -12.6730    -3.0920     4.7440 c3         1 MOL      -0.105067
     36 C32        -13.3040    -4.3120     4.3720 c3         1 MOL      -0.077400
     37 C33        -14.7150    -4.0960     4.4350 c3         1 MOL      -0.078400
     38 C34        -15.2420    -5.3630     4.0390 c3         1 MOL      -0.079400
     39 C35        -16.6610    -5.2410     4.0830 c3         1 MOL      -0.078733
     40 C36        -17.1330    -6.5270     3.6610 c3         1 MOL      -0.079400
     41 C37        -18.5590    -6.4380     3.6960 c3         1 MOL      -0.079400
     42 C38        -19.0290    -7.7210     3.2590 c3         1 MOL      -0.078400
     43 C39        -20.4660    -7.6240     3.2990 c3         1 MOL      -0.078400
     44 C40        -20.9510    -8.9070     2.8510 c3         1 MOL      -0.092067
     45 C41        -22.3930    -8.8310     2.8880 c3         1 MOL       0.129733
     46 C42        -24.1040   -10.0920     2.4640 c3         1 MOL       0.104067
     47 C43        -24.4340   -11.4010     1.9990 c3         1 MOL       0.116067
     48 C44        -26.2930   -12.4270     1.6570 c3         1 MOL       0.104400
     49 C45        -27.6410   -12.0840     1.8040 c3         1 MOL       0.098067
     50 C46        -29.5120   -13.1210     1.4410 c3         1 MOL       0.126067
     51 C47        -29.8190   -14.4150     0.9570 c3         1 MOL       0.105733
     52 C48        -31.5700   -15.6330     0.5240 c3         1 MOL       0.093067
     53 C49        -33.0180   -15.4660     0.6120 c3         1 MOL       0.125067
     54 C50         -9.5710     5.9480     7.6650 c3         1 MOL      -0.105067
     55 C51        -10.2440     7.0290     7.8560 c3         1 MOL      -0.077400
     56 C52         -9.3210     7.9390     8.2520 c3         1 MOL      -0.078400
     57 C53        -10.2060     8.9000     8.4990 c3         1 MOL      -0.079400
     58 C54         -9.5280     9.9470     8.9540 c3         1 MOL      -0.078733
     59 C55        -10.6120    10.7270     9.2390 c3         1 MOL      -0.079400
     60 C56        -10.0720    11.8210     9.7440 c3         1 MOL      -0.079400
     61 C57        -11.1740    12.5450    10.0850 c3         1 MOL      -0.078400
     62 C58        -10.5610    13.6350    10.5880 c3         1 MOL      -0.078400
     63 C59        -11.5740    14.4490    10.9970 c3         1 MOL      -0.092067
     64 C60        -10.8490    15.5160    11.4560 c3         1 MOL       0.129733
     65 C61        -11.0920    17.3470    12.2230 c3         1 MOL       0.104067
     66 C62        -12.0450    18.2490    12.6700 c3         1 MOL       0.116067
     67 C63        -11.8510    20.1930    13.4330 c3         1 MOL       0.104400
     68 C64        -10.7700    21.0580    13.6500 c3         1 MOL       0.098067
     69 C65        -10.6360    23.0630    14.3940 c3         1 MOL       0.126067
     70 C66        -11.6380    23.9390    14.8470 c3         1 MOL       0.105733
     71 C67        -11.8910    25.9060    15.6080 c3         1 MOL       0.093067
     72 C68        -11.0410    27.0400    15.9010 c3         1 MOL       0.125067
     73 O           -7.9590     4.1980     6.6690 o          1 MOL      -0.605767
     74 O1         -11.7500    -0.9930     6.0950 o          1 MOL      -0.605767
     75 O2          -4.8090     0.1310     7.0750 o          1 MOL      -0.605767
     76 O3           2.9620   -12.1060     1.3300 os         1 MOL      -0.423267
     77 O4           4.1730   -14.8240     0.1900 os         1 MOL      -0.419267
     78 O5           6.0420   -17.1530    -0.7460 os         1 MOL      -0.423267
     79 O6           7.0930   -19.8890    -1.9590 os         1 MOL      -0.425933
     80 O7           9.0570   -22.4670    -3.0010 oh         1 MOL      -0.592800
     81 O8         -22.8010   -10.0600     2.4560 os         1 MOL      -0.423267
     82 O9         -25.7490   -11.3300     2.0470 os         1 MOL      -0.419267
     83 O10        -28.2080   -13.1890     1.4060 os         1 MOL      -0.423267
     84 O11        -31.1140   -14.4300     0.9590 os         1 MOL      -0.425933
     85 O12        -33.6160   -16.6390     0.2020 oh         1 MOL      -0.592800
     86 O13        -11.7550    16.3450    11.8640 os         1 MOL      -0.423267
     87 O14        -11.2290    19.1990    12.9760 os         1 MOL      -0.419267
     88 O15        -11.4100    22.0730    14.1190 os         1 MOL      -0.423267
     89 O16        -11.0030    25.0050    15.1540 os         1 MOL      -0.425933
     90 O17        -11.8380    28.0500    16.3880 oh         1 MOL      -0.592800
     91 H253        -7.9360    -1.8700     5.8650 ha         1 MOL       0.165000
     92 H254       -10.7070     1.3860     6.1260 ha         1 MOL       0.165000
     93 H255        -6.5130     2.0800     6.7280 ha         1 MOL       0.165000
     94 H250       -10.8220     3.0160     7.1260 hn         1 MOL       0.311500
     95 H251        -9.4600    -2.4610     4.5440 hn         1 MOL       0.311500
     96 H252        -6.0210    -1.8850     5.0020 hn         1 MOL       0.311500
     97 H6          -3.7090    -1.8870     6.6880 h1         1 MOL       0.064700
     98 H7          -3.4760    -1.1620     5.0700 h1         1 MOL       0.064700
     99 H8          -4.3850    -3.0960     4.0350 hc         1 MOL       0.045533
    100 H9          -4.6030    -3.8600     5.6550 hc         1 MOL       0.045533
    101 H10         -2.2820    -3.4400     6.1420 hc         1 MOL       0.043533
    102 H11         -2.0950    -2.6730     4.5210 hc         1 MOL       0.043533
    103 H12         -2.9790    -4.6250     3.4940 hc         1 MOL       0.040867
    104 H13         -3.1440    -5.4030     5.1100 hc         1 MOL       0.040867
    105 H14         -0.8020    -5.0280     5.5110 hc         1 MOL       0.040700
    106 H15         -0.6630    -4.2450     3.8910 hc         1 MOL       0.040700
    107 H16         -1.7110    -6.1420     2.8870 hc         1 MOL       0.040033
    108 H17         -1.8360    -6.9280     4.5000 hc         1 MOL       0.040033
    109 H18          0.5450    -6.7860     4.7430 hc         1 MOL       0.040700
    110 H19          0.6550    -5.9970     3.1220 hc         1 MOL       0.040700
    111 H20         -0.6600    -7.7780     2.1740 hc         1 MOL       0.039700
    112 H21         -0.7600    -8.5620     3.7890 hc         1 MOL       0.039700
    113 H22          1.6170    -8.6530     3.8900 hc         1 MOL       0.041533
    114 H23          1.7120    -7.8710     2.2670 hc         1 MOL       0.041533
    115 H24          0.2280    -9.5650     1.3710 hc         1 MOL       0.040200
    116 H25          0.1380   -10.3390     2.9950 hc         1 MOL       0.040200
    117 H26          2.5270   -10.5120     3.0430 hc         1 MOL       0.053700
    118 H27          2.6180    -9.7460     1.4200 hc         1 MOL       0.053700
    119 H28          1.2070   -11.4840     0.5210 h1         1 MOL       0.032867
    120 H29          1.1180   -12.2450     2.1620 h1         1 MOL       0.032867
    121 H30          2.4560   -13.2480    -0.1940 h1         1 MOL       0.044700
    122 H31          2.3700   -13.9800     1.4530 h1         1 MOL       0.044700
    123 H32          4.8340   -12.9420     0.0630 h1         1 MOL       0.052700
    124 H33          4.7450   -13.6740     1.7200 h1         1 MOL       0.052700
    125 H34          5.8560   -15.5240     0.9600 h1         1 MOL       0.059200
    126 H35          5.9400   -14.7940    -0.6960 h1         1 MOL       0.059200
    127 H36          4.3560   -16.3850    -1.4780 h1         1 MOL       0.050533
    128 H37          4.2730   -17.1190     0.1740 h1         1 MOL       0.050533
    129 H38          5.3900   -18.2500    -2.2730 h1         1 MOL       0.056367
    130 H39          5.3200   -19.0070    -0.6300 h1         1 MOL       0.056367
    131 H40          7.6920   -18.7840    -0.4250 h1         1 MOL       0.040700
    132 H41          7.7670   -18.0280    -2.0640 h1         1 MOL       0.040700
    133 H42          8.8260   -20.6170    -1.1970 h1         1 MOL       0.034033
    134 H43          8.9190   -19.8710    -2.8450 h1         1 MOL       0.034033
    135 H44          7.3630   -21.5540    -3.6800 h1         1 MOL       0.059867
    136 H45          7.2700   -22.2820    -2.0400 h1         1 MOL       0.059867
    137 H46        -11.0700    -4.2570     5.3680 h1         1 MOL       0.064700
    138 H47        -11.0220    -3.7740     3.6580 h1         1 MOL       0.064700
    139 H48        -12.9320    -2.2870     4.0420 hc         1 MOL       0.045533
    140 H49        -12.9610    -2.8090     5.7680 hc         1 MOL       0.045533
    141 H50        -13.0080    -4.5880     3.3500 hc         1 MOL       0.043533
    142 H51        -13.0170    -5.1120     5.0690 hc         1 MOL       0.043533
    143 H52        -15.0300    -3.3070     3.7390 hc         1 MOL       0.040867
    144 H53        -15.0270    -3.8450     5.4610 hc         1 MOL       0.040867
    145 H54        -14.9130    -5.6000     3.0160 hc         1 MOL       0.040700
    146 H55        -14.9060    -6.1490     4.7290 hc         1 MOL       0.040700
    147 H56        -17.0050    -4.4580     3.3950 hc         1 MOL       0.040033
    148 H57        -16.9970    -5.0190     5.1060 hc         1 MOL       0.040033
    149 H58        -16.7790    -7.3120     4.3440 hc         1 MOL       0.040700
    150 H59        -16.7880    -6.7390     2.6370 hc         1 MOL       0.040700
    151 H60        -18.9110    -5.6510     3.0180 hc         1 MOL       0.039700
    152 H61        -18.9020    -6.2320     4.7200 hc         1 MOL       0.039700
    153 H62        -18.6750    -8.5120     3.9340 hc         1 MOL       0.041533
    154 H63        -18.6840    -7.9220     2.2330 hc         1 MOL       0.041533
    155 H64        -20.8120    -6.8260     2.6270 hc         1 MOL       0.040200
    156 H65        -20.8020    -7.4210     4.3260 hc         1 MOL       0.040200
    157 H66        -20.6100    -9.1040     1.8260 hc         1 MOL       0.053700
    158 H67        -20.5980    -9.7020     3.5210 hc         1 MOL       0.053700
    159 H68        -22.7340    -8.6390     3.9170 h1         1 MOL       0.032867
    160 H69        -22.7490    -8.0350     2.2150 h1         1 MOL       0.032867
    161 H70        -24.5180    -9.3340     1.7850 h1         1 MOL       0.044700
    162 H71        -24.4920    -9.9430     3.4800 h1         1 MOL       0.044700
    163 H72        -24.0670   -11.5590     0.9720 h1         1 MOL       0.052700
    164 H73        -24.0380   -12.1730     2.6780 h1         1 MOL       0.052700
    165 H74        -26.0300   -13.2740     2.3060 h1         1 MOL       0.059200
    166 H75        -26.0590   -12.6530     0.6060 h1         1 MOL       0.059200
    167 H76        -27.8920   -11.2300     1.1570 h1         1 MOL       0.050533
    168 H77        -27.8670   -11.8530     2.8560 h1         1 MOL       0.050533
    169 H78        -29.8930   -12.9810     2.4640 h1         1 MOL       0.056367
    170 H79        -29.9030   -12.3430     0.7680 h1         1 MOL       0.056367
    171 H80        -29.4150   -14.5450    -0.0570 h1         1 MOL       0.040700
    172 H81        -29.4050   -15.1770     1.6330 h1         1 MOL       0.040700
    173 H82        -31.2530   -15.8260    -0.5130 h1         1 MOL       0.034033
    174 H83        -31.2290   -16.4460     1.1870 h1         1 MOL       0.034033
    175 H84        -33.3250   -14.6320    -0.0340 h1         1 MOL       0.059867
    176 H85        -33.2880   -15.2460     1.6540 h1         1 MOL       0.059867
    177 H86        -11.3820     5.0850     8.0320 h1         1 MOL       0.064700
    178 H87        -11.0070     5.4560     6.3450 h1         1 MOL       0.064700
    179 H88         -9.1040     5.6060     8.6010 hc         1 MOL       0.045533
    180 H89         -8.8160     6.0830     6.8790 hc         1 MOL       0.045533
    181 H90        -10.9870     6.8480     8.6490 hc         1 MOL       0.043533
    182 H91        -10.7490     7.3560     6.9330 hc         1 MOL       0.043533
    183 H92         -8.6030     8.1930     7.4610 hc         1 MOL       0.040867
    184 H93         -8.8050     7.6290     9.1730 hc         1 MOL       0.040867
    185 H94        -10.9040     8.5460     9.2760 hc         1 MOL       0.040700
    186 H95        -10.7660     9.1630     7.5880 hc         1 MOL       0.040700
    187 H96         -8.8650    10.3820     8.1960 hc         1 MOL       0.040033
    188 H97         -8.9710     9.6990     9.8700 hc         1 MOL       0.040033
    189 H98        -11.2510    10.2340     9.9920 hc         1 MOL       0.040700
    190 H99        -11.2010    10.9510     8.3340 hc         1 MOL       0.040700
    191 H100        -9.4550    12.3380     9.0000 hc         1 MOL       0.039700
    192 H101        -9.4770    11.5860    10.6390 hc         1 MOL       0.039700
    193 H102       -11.7740    12.0230    10.8470 hc         1 MOL       0.041533
    194 H103       -11.7900    12.7870     9.2060 hc         1 MOL       0.041533
    195 H104        -9.9560    14.1190     9.8070 hc         1 MOL       0.040200
    196 H105        -9.9200    13.3570    11.4410 hc         1 MOL       0.040200
    197 H106       -12.1650    13.9840    11.7960 hc         1 MOL       0.053700
    198 H107       -12.2190    14.7380    10.1570 hc         1 MOL       0.053700
    199 H108       -10.2550    15.9410    10.6270 h1         1 MOL       0.032867
    200 H109       -10.1820    15.2040    12.2790 h1         1 MOL       0.032867
    201 H110       -10.5360    17.7680    11.3700 h1         1 MOL       0.044700
    202 H111       -10.3950    17.0890    13.0350 h1         1 MOL       0.044700
    203 H112       -12.5910    17.8530    13.5410 h1         1 MOL       0.052700
    204 H113       -12.7380    18.5290    11.8600 h1         1 MOL       0.052700
    205 H114       -12.3690    19.9580    14.3750 h1         1 MOL       0.059200
    206 H115       -12.5520    20.6150    12.6970 h1         1 MOL       0.059200
    207 H116       -10.2600    21.2830    12.6990 h1         1 MOL       0.050533
    208 H117       -10.0650    20.6280    14.3790 h1         1 MOL       0.050533
    209 H118       -10.1280    23.4550    13.5000 h1         1 MOL       0.056367
    210 H119        -9.9140    22.8260    15.1890 h1         1 MOL       0.056367
    211 H120       -12.1450    23.5050    15.7220 h1         1 MOL       0.040700
    212 H121       -12.3640    24.1250    14.0410 h1         1 MOL       0.040700
    213 H122       -12.3940    25.5400    16.5190 h1         1 MOL       0.034033
    214 H123       -12.6350    26.1540    14.8330 h1         1 MOL       0.034033
    215 H124       -10.5350    27.3550    14.9780 h1         1 MOL       0.059867
    216 H125       -10.2970    26.7400    16.6510 h1         1 MOL       0.059867
    217 H126       -12.5080    28.3170    15.7060 ho         1 MOL       0.398000
    218 H127         9.6350   -21.9850    -3.6480 ho         1 MOL       0.398000
    219 H128       -33.3800   -16.8330    -0.7420 ho         1 MOL       0.398000
@<TRIPOS>BOND
     1     1    10 1   
     2     1    13 1   
     3     1    94 1   
     4     2    11 1   
     5     2    12 1   
     6     2    95 1   
     7     3    14 1   
     8     3    15 1   
     9     3    96 1   
    10     4     5 ar  
    11     4     9 ar  
    12     4    15 1   
    13     5     6 ar  
    14     5    91 1   
    15     6     7 ar  
    16     6    11 1   
    17     7     8 ar  
    18     7    92 1   
    19     8     9 ar  
    20     8    10 1   
    21     9    93 1   
    22    10    73 2   
    23    11    74 2   
    24    12    35 1   
    25    12   137 1   
    26    12   138 1   
    27    13    54 1   
    28    13   177 1   
    29    13   178 1   
    30    14    16 1   
    31    14    97 1   
    32    14    98 1   
    33    15    75 2   
    34    16    17 1   
    35    16    99 1   
    36    16   100 1   
    37    17    18 1   
    38    17   101 1   
    39    17   102 1   
    40    18    19 1   
    41    18   103 1   
    42    18   104 1   
    43    19    20 1   
    44    19   105 1   
    45    19   106 1   
    46    20    21 1   
    47    20   107 1   
    48    20   108 1   
    49    21    22 1   
    50    21   109 1   
    51    21   110 1   
    52    22    23 1   
    53    22   111 1   
    54    22   112 1   
    55    23    24 1   
    56    23   113 1   
    57    23   114 1   
    58    24    25 1   
    59    24   115 1   
    60    24   116 1   
    61    25    26 1   
    62    25   117 1   
    63    25   118 1   
    64    26    76 1   
    65    26   119 1   
    66    26   120 1   
    67    27    28 1   
    68    27    76 1   
    69    27   121 1   
    70    27   122 1   
    71    28    77 1   
    72    28   123 1   
    73    28   124 1   
    74    29    30 1   
    75    29    77 1   
    76    29   125 1   
    77    29   126 1   
    78    30    78 1   
    79    30   127 1   
    80    30   128 1   
    81    31    32 1   
    82    31    78 1   
    83    31   129 1   
    84    31   130 1   
    85    32    79 1   
    86    32   131 1   
    87    32   132 1   
    88    33    34 1   
    89    33    79 1   
    90    33   133 1   
    91    33   134 1   
    92    34    80 1   
    93    34   135 1   
    94    34   136 1   
    95    35    36 1   
    96    35   139 1   
    97    35   140 1   
    98    36    37 1   
    99    36   141 1   
   100    36   142 1   
   101    37    38 1   
   102    37   143 1   
   103    37   144 1   
   104    38    39 1   
   105    38   145 1   
   106    38   146 1   
   107    39    40 1   
   108    39   147 1   
   109    39   148 1   
   110    40    41 1   
   111    40   149 1   
   112    40   150 1   
   113    41    42 1   
   114    41   151 1   
   115    41   152 1   
   116    42    43 1   
   117    42   153 1   
   118    42   154 1   
   119    43    44 1   
   120    43   155 1   
   121    43   156 1   
   122    44    45 1   
   123    44   157 1   
   124    44   158 1   
   125    45    81 1   
   126    45   159 1   
   127    45   160 1   
   128    46    47 1   
   129    46    81 1   
   130    46   161 1   
   131    46   162 1   
   132    47    82 1   
   133    47   163 1   
   134    47   164 1   
   135    48    49 1   
   136    48    82 1   
   137    48   165 1   
   138    48   166 1   
   139    49    83 1   
   140    49   167 1   
   141    49   168 1   
   142    50    51 1   
   143    50    83 1   
   144    50   169 1   
   145    50   170 1   
   146    51    84 1   
   147    51   171 1   
   148    51   172 1   
   149    52    53 1   
   150    52    84 1   
   151    52   173 1   
   152    52   174 1   
   153    53    85 1   
   154    53   175 1   
   155    53   176 1   
   156    54    55 1   
   157    54   179 1   
   158    54   180 1   
   159    55    56 1   
   160    55   181 1   
   161    55   182 1   
   162    56    57 1   
   163    56   183 1   
   164    56   184 1   
   165    57    58 1   
   166    57   185 1   
   167    57   186 1   
   168    58    59 1   
   169    58   187 1   
   170    58   188 1   
   171    59    60 1   
   172    59   189 1   
   173    59   190 1   
   174    60    61 1   
   175    60   191 1   
   176    60   192 1   
   177    61    62 1   
   178    61   193 1   
   179    61   194 1   
   180    62    63 1   
   181    62   195 1   
   182    62   196 1   
   183    63    64 1   
   184    63   197 1   
   185    63   198 1   
   186    64    86 1   
   187    64   199 1   
   188    64   200 1   
   189    65    66 1   
   190    65    86 1   
   191    65   201 1   
   192    65   202 1   
   193    66    87 1   
   194    66   203 1   
   195    66   204 1   
   196    67    68 1   
   197    67    87 1   
   198    67   205 1   
   199    67   206 1   
   200    68    88 1   
   201    68   207 1   
   202    68   208 1   
   203    69    70 1   
   204    69    88 1   
   205    69   209 1   
   206    69   210 1   
   207    70    89 1   
   208    70   211 1   
   209    70   212 1   
   210    71    72 1   
   211    71    89 1   
   212    71   213 1   
   213    71   214 1   
   214    72    90 1   
   215    72   215 1   
   216    72   216 1   
   217    80   218 1   
   218    85   219 1   
   219    90   217 1   
@<TRIPOS>SUBSTRUCTURE
     1 MOL         1 TEMP              0 ****  ****    0 ROOT
