@<TRIPOS>MOLECULE
MOL
  378   381     1     0     0
SMALL
bcc


@<TRIPOS>ATOM
      1 N           18.6420     5.8590   -19.8320 n         18 MOL      -0.563900
      2 N1          13.3450     9.3720   -18.4510 n         18 MOL      -0.563900
      3 N2          12.4660     7.5060   -23.1000 n         18 MOL      -0.563900
      4 C           14.4380     6.9650   -21.8220 ca        18 MOL      -0.153600
      5 C1          13.9970     7.6130   -20.6560 ca        18 MOL      -0.041000
      6 C2          14.8720     7.8780   -19.5920 ca        18 MOL      -0.153600
      7 C3          16.2060     7.4640   -19.7030 ca        18 MOL      -0.041000
      8 C4          16.6700     6.8020   -20.8500 ca        18 MOL      -0.153600
      9 C5          15.7790     6.5700   -21.9060 ca        18 MOL      -0.041000
     10 C6          18.0990     6.3340   -20.9580 c         18 MOL       0.669700
     11 C7          14.3900     8.5450   -18.3250 c         18 MOL       0.669700
     12 C8          12.6720    10.0290   -17.3340 c3        18 MOL       0.084333
     13 C9          19.9870     5.4040   -19.8430 c3        18 MOL       0.084333
     14 C10         11.4940     7.2960   -24.1320 c3        18 MOL       0.084333
     15 C11         13.4860     6.6550   -22.9520 c         18 MOL       0.669700
     16 C12         10.2680     8.1700   -23.8650 c3        18 MOL      -0.104067
     17 C13          9.2290     7.9470   -24.9630 c3        18 MOL      -0.077400
     18 C14          8.0160     8.8290   -24.6590 c3        18 MOL      -0.078400
     19 C15          6.9450     8.6380   -25.7350 c3        18 MOL      -0.079400
     20 C16          5.7550     9.5320   -25.3880 c3        18 MOL      -0.078733
     21 C17          4.6650     9.3680   -26.4450 c3        18 MOL      -0.079400
     22 C18          3.4910    10.2720   -26.0690 c3        18 MOL      -0.079400
     23 C19          2.3860    10.1310   -27.1160 c3        18 MOL      -0.078400
     24 C20          1.2190    11.0400   -26.7310 c3        18 MOL      -0.078400
     25 C21          0.1170    10.9040   -27.7800 c3        18 MOL      -0.084400
     26 C22         -1.0530    11.8150   -27.3980 c3        18 MOL       0.133400
     27 C23         -3.1400    12.5270   -28.0280 c3        18 MOL       0.128400
     28 C24         -4.2020    12.3980   -29.0740 c3        18 MOL       0.130400
     29 C25         -6.2370    13.1800   -29.6130 c3        18 MOL       0.130067
     30 C26         -7.2820    14.1090   -29.1250 c3        18 MOL       0.129400
     31 C27         -9.3150    14.9550   -29.5910 c3        18 MOL       0.130067
     32 C28        -10.4460    14.9220   -30.5990 c3        18 MOL       0.128400
     33 C29        -12.5460    15.7830   -31.1130 c3        18 MOL       0.105400
     34 C30        -13.6980    16.7440   -30.6740 c3        18 MOL       0.085000
     35 C31         20.6010     5.4330   -18.4490 c3        18 MOL      -0.104067
     36 C32         22.0320     4.9250   -18.5850 c3        18 MOL      -0.077400
     37 C33         22.7300     4.9270   -17.2310 c3        18 MOL      -0.078400
     38 C34         24.1490     4.4110   -17.4500 c3        18 MOL      -0.079400
     39 C35         24.9170     4.3870   -16.1330 c3        18 MOL      -0.078733
     40 C36         26.3180     3.8620   -16.4300 c3        18 MOL      -0.079400
     41 C37         27.1420     3.8120   -15.1500 c3        18 MOL      -0.079400
     42 C38         28.5280     3.2760   -15.5110 c3        18 MOL      -0.078400
     43 C39         29.4050     3.1970   -14.2650 c3        18 MOL      -0.078400
     44 C40         30.7700     2.6510   -14.6850 c3        18 MOL      -0.084400
     45 C41         31.6860     2.5450   -13.4680 c3        18 MOL       0.133400
     46 C42         33.7920     1.8990   -12.8330 c3        18 MOL       0.128400
     47 C43         35.0550     1.3530   -13.3390 c3        18 MOL       0.130400
     48 C44         36.9940     0.7640   -12.4610 c3        18 MOL       0.130067
     49 C45         37.5660     0.7420   -11.1710 c3        18 MOL       0.129400
     50 C46         39.4700     0.1160   -10.2920 c3        18 MOL       0.130067
     51 C47         40.6930    -0.4460   -10.7740 c3        18 MOL       0.128400
     52 C48         42.6690    -1.1230    -9.9520 c3        18 MOL       0.105400
     53 C49         43.3400    -1.2170    -8.6270 c3        18 MOL       0.085000
     54 C50         13.5650    10.7580   -16.3200 c3        18 MOL      -0.104067
     55 C51         12.5660    11.3340   -15.3160 c3        18 MOL      -0.077400
     56 C52         13.2210    12.1200   -14.1890 c3        18 MOL      -0.078400
     57 C53         12.0510    12.6290   -13.3330 c3        18 MOL      -0.079400
     58 C54         12.5070    13.4580   -12.1330 c3        18 MOL      -0.078733
     59 C55         11.2250    13.9030   -11.4140 c3        18 MOL      -0.079400
     60 C56         11.5360    14.7520   -10.1810 c3        18 MOL      -0.079400
     61 C57         10.1910    15.1630    -9.5530 c3        18 MOL      -0.078400
     62 C58         10.4120    16.0230    -8.3040 c3        18 MOL      -0.078400
     63 C59          9.0370    16.4180    -7.7370 c3        18 MOL      -0.084400
     64 C60          9.2220    17.2840    -6.4780 c3        18 MOL       0.133400
     65 C61          8.1460    18.4540    -4.7960 c3        18 MOL       0.128400
     66 C62          6.7860    18.9240    -4.2350 c3        18 MOL       0.130400
     67 C63          5.7680    20.1860    -2.5630 c3        18 MOL       0.130067
     68 C64          6.0380    21.0360    -1.2900 c3        18 MOL       0.129400
     69 C65          5.1740    22.3190     0.4180 c3        18 MOL       0.130067
     70 C66          3.9080    22.9690     1.0650 c3        18 MOL       0.128400
     71 C67          3.0840    24.3540     2.7900 c3        18 MOL       0.105400
     72 C68          3.3700    25.2310     4.0870 c3        18 MOL       0.085000
     73 O           18.7030     6.3710   -22.0310 o         18 MOL      -0.595767
     74 O1          14.9400     8.3310   -17.2430 o         18 MOL      -0.595767
     75 O2          13.6580     5.6870   -23.6930 o         18 MOL      -0.595767
     76 O5          -2.0780    11.6940   -28.3780 os        18 MOL      -0.427933
     77 O6          -5.2320    13.2430   -28.6860 os        18 MOL      -0.430600
     78 O7          -8.3130    14.0780   -30.0350 os        18 MOL      -0.430600
     79 O8         -11.4590    15.8000   -30.1640 os        18 MOL      -0.425933
     80 O9          32.9440     2.0260   -13.9000 os        18 MOL      -0.427933
     81 O10         35.8070     1.2600   -12.2090 os        18 MOL      -0.430600
     82 O11         38.7590     0.2370   -11.4130 os        18 MOL      -0.430600
     83 O12         41.4230    -0.5850    -9.6710 os        18 MOL      -0.425933
     84 O13          7.9440    17.6650    -5.9620 os        18 MOL      -0.427933
     85 O14          7.0130    19.7120    -3.0690 os        18 MOL      -0.430600
     86 O15          4.8240    21.5570    -0.7430 os        18 MOL      -0.430600
     87 O16          4.2820    23.7320     2.2230 os        18 MOL      -0.425933
     88 H253        12.9510     7.8740   -20.5590 ha        18 MOL       0.160667
     89 H254        16.8860     7.6520   -18.8800 ha        18 MOL       0.160667
     90 H255        16.1290     6.0570   -22.7940 ha        18 MOL       0.160667
     91 H250        18.0020     5.6600   -19.0700 hn        18 MOL       0.307833
     92 H251        13.0040     9.5570   -19.3810 hn        18 MOL       0.307833
     93 H252        12.4980     8.3570   -22.5610 hn        18 MOL       0.307833
     94 H7          11.2170     6.2320   -24.1570 h1        18 MOL       0.064367
     95 H8          11.9360     7.5630   -25.1020 h1        18 MOL       0.064367
     96 H9          10.5650     9.2290   -23.8550 hc        18 MOL       0.044867
     97 H10          9.8330     7.9020   -22.8900 hc        18 MOL       0.044867
     98 H11          8.9250     6.8900   -24.9750 hc        18 MOL       0.043867
     99 H12          9.6560     8.2190   -25.9380 hc        18 MOL       0.043867
    100 H13          8.3280     9.8830   -24.6390 hc        18 MOL       0.040533
    101 H14          7.6010     8.5510   -23.6800 hc        18 MOL       0.040533
    102 H15          6.6230     7.5860   -25.7580 hc        18 MOL       0.040867
    103 H16          7.3490     8.9220   -26.7170 hc        18 MOL       0.040867
    104 H17          6.0820    10.5810   -25.3600 hc        18 MOL       0.039867
    105 H18          5.3570     9.2450   -24.4050 hc        18 MOL       0.039867
    106 H19          4.3310     8.3210   -26.4750 hc        18 MOL       0.040533
    107 H20          5.0570     9.6600   -27.4290 hc        18 MOL       0.040533
    108 H21          3.8320    11.3170   -26.0340 hc        18 MOL       0.039533
    109 H22          3.1050     9.9790   -25.0830 hc        18 MOL       0.039533
    110 H23          2.0420     9.0880   -27.1540 hc        18 MOL       0.041867
    111 H24          2.7720    10.4270   -28.1020 hc        18 MOL       0.041867
    112 H25          1.5630    12.0830   -26.6920 hc        18 MOL       0.040200
    113 H26          0.8310    10.7440   -25.7460 hc        18 MOL       0.040200
    114 H27         -0.2260     9.8600   -27.8200 hc        18 MOL       0.055200
    115 H28          0.5090    11.2010   -28.7630 hc        18 MOL       0.055200
    116 H29         -0.7070    12.8590   -27.3550 h1        18 MOL       0.027533
    117 H30         -1.4460    11.5180   -26.4140 h1        18 MOL       0.027533
    118 H31         -2.7960    13.5710   -27.9810 h1        18 MOL       0.039867
    119 H32         -3.5450    12.2270   -27.0500 h1        18 MOL       0.039867
    120 H33         -4.5620    11.3590   -29.1250 h1        18 MOL       0.042200
    121 H34         -3.8070    12.7060   -30.0540 h1        18 MOL       0.042200
    122 H35         -6.6330    12.1550   -29.6790 h1        18 MOL       0.042200
    123 H36         -5.8670    13.5040   -30.5980 h1        18 MOL       0.042200
    124 H37         -6.8740    15.1280   -29.0550 h1        18 MOL       0.042700
    125 H38         -7.6420    13.7830   -28.1370 h1        18 MOL       0.042700
    126 H39         -8.9090    15.9760   -29.5160 h1        18 MOL       0.042867
    127 H40         -9.6830    14.6300   -28.6040 h1        18 MOL       0.042867
    128 H41        -10.8470    13.9000   -30.6730 h1        18 MOL       0.042200
    129 H42        -10.0740    15.2450   -31.5830 h1        18 MOL       0.042200
    130 H43        -12.9380    14.7570   -31.1870 h1        18 MOL       0.033200
    131 H44        -12.1650    16.0990   -32.0960 h1        18 MOL       0.033200
    132 H45         20.5700     6.0330   -20.5320 h1        18 MOL       0.064367
    133 H46         20.0050     4.3710   -20.2180 h1        18 MOL       0.064367
    134 H47         20.0330     4.7800   -17.7700 hc        18 MOL       0.044867
    135 H48         20.6040     6.4610   -18.0600 hc        18 MOL       0.044867
    136 H49         22.5820     5.5790   -19.2760 hc        18 MOL       0.043867
    137 H50         22.0150     3.9020   -18.9860 hc        18 MOL       0.043867
    138 H51         22.1940     4.2690   -16.5320 hc        18 MOL       0.040533
    139 H52         22.7610     5.9490   -16.8280 hc        18 MOL       0.040533
    140 H53         24.6700     5.0700   -18.1590 hc        18 MOL       0.040867
    141 H54         24.1060     3.3930   -17.8620 hc        18 MOL       0.040867
    142 H55         24.4120     3.7230   -15.4170 hc        18 MOL       0.039867
    143 H56         24.9780     5.4030   -15.7170 hc        18 MOL       0.039867
    144 H57         26.8100     4.5270   -17.1540 hc        18 MOL       0.040533
    145 H58         26.2440     2.8510   -16.8540 hc        18 MOL       0.040533
    146 H59         26.6590     3.1430   -14.4230 hc        18 MOL       0.039533
    147 H60         27.2290     4.8220   -14.7220 hc        18 MOL       0.039533
    148 H61         28.9980     3.9460   -16.2450 hc        18 MOL       0.041867
    149 H62         28.4260     2.2720   -15.9460 hc        18 MOL       0.041867
    150 H63         28.9450     2.5220   -13.5290 hc        18 MOL       0.040200
    151 H64         29.5220     4.1980   -13.8260 hc        18 MOL       0.040200
    152 H65         31.2210     3.3270   -15.4260 hc        18 MOL       0.055200
    153 H66         30.6400     1.6540   -15.1300 hc        18 MOL       0.055200
    154 H67         31.2370     1.8650   -12.7280 h1        18 MOL       0.027533
    155 H68         31.8250     3.5400   -13.0190 h1        18 MOL       0.027533
    156 H69         33.3690     1.2080   -12.0910 h1        18 MOL       0.039867
    157 H70         33.9750     2.8780   -12.3680 h1        18 MOL       0.039867
    158 H71         35.5140     2.0380   -14.0700 h1        18 MOL       0.042200
    159 H72         34.8950     0.3620   -13.7920 h1        18 MOL       0.042200
    160 H73         37.5730     1.4130   -13.1330 h1        18 MOL       0.042200
    161 H74         36.9290    -0.2540   -12.8690 h1        18 MOL       0.042200
    162 H75         36.9790     0.0940   -10.5040 h1        18 MOL       0.042700
    163 H76         37.6300     1.7600   -10.7590 h1        18 MOL       0.042700
    164 H77         38.9840    -0.5700    -9.5800 h1        18 MOL       0.042867
    165 H78         39.6510     1.0940    -9.8210 h1        18 MOL       0.042867
    166 H79         40.5020    -1.4180   -11.2490 h1        18 MOL       0.042200
    167 H80         41.1710     0.2400   -11.4860 h1        18 MOL       0.042200
    168 H81         43.2350    -0.4590   -10.6250 h1        18 MOL       0.033200
    169 H82         42.5670    -2.1230   -10.4040 h1        18 MOL       0.033200
    170 H83         12.1190     9.2590   -16.7750 h1        18 MOL       0.064367
    171 H84         11.9540    10.7520   -17.7450 h1        18 MOL       0.064367
    172 H85         14.1300    11.5670   -16.8060 hc        18 MOL       0.044867
    173 H86         14.2550    10.0570   -15.8270 hc        18 MOL       0.044867
    174 H87         11.9880    10.5090   -14.8770 hc        18 MOL       0.043867
    175 H88         11.8830    12.0050   -15.8560 hc        18 MOL       0.043867
    176 H89         13.7920    12.9640   -14.5980 hc        18 MOL       0.040533
    177 H90         13.8820    11.4700   -13.6010 hc        18 MOL       0.040533
    178 H91         11.4760    11.7670   -12.9680 hc        18 MOL       0.040867
    179 H92         11.4040    13.2540   -13.9650 hc        18 MOL       0.040867
    180 H93         13.0720    14.3380   -12.4720 hc        18 MOL       0.039867
    181 H94         13.1310    12.8490   -11.4640 hc        18 MOL       0.039867
    182 H95         10.6580    13.0140   -11.1030 hc        18 MOL       0.040533
    183 H96         10.6170    14.4960   -12.1110 hc        18 MOL       0.040533
    184 H97         12.0980    15.6490   -10.4790 hc        18 MOL       0.039533
    185 H98         12.1280    14.1650    -9.4630 hc        18 MOL       0.039533
    186 H99          9.6270    14.2610    -9.2750 hc        18 MOL       0.041867
    187 H100         9.6140    15.7400   -10.2900 hc        18 MOL       0.041867
    188 H101        10.9730    16.9290    -8.5730 hc        18 MOL       0.040200
    189 H102        10.9750    15.4490    -7.5540 hc        18 MOL       0.040200
    190 H103         8.4720    15.5100    -7.4790 hc        18 MOL       0.055200
    191 H104         8.4840    16.9890    -8.4980 hc        18 MOL       0.055200
    192 H105         9.7930    18.1880    -6.7360 h1        18 MOL       0.027533
    193 H106         9.7690    16.7100    -5.7160 h1        18 MOL       0.027533
    194 H107         8.7550    19.3340    -5.0540 h1        18 MOL       0.039867
    195 H108         8.6720    17.8540    -4.0370 h1        18 MOL       0.039867
    196 H109         6.1660    18.0520    -3.9760 h1        18 MOL       0.042200
    197 H110         6.2680    19.5310    -4.9930 h1        18 MOL       0.042200
    198 H111         5.1210    19.3290    -2.3140 h1        18 MOL       0.042200
    199 H112         5.2770    20.8060    -3.3310 h1        18 MOL       0.042200
    200 H113         6.6980    21.8780    -1.5510 h1        18 MOL       0.042700
    201 H114         6.5340    20.4080    -0.5330 h1        18 MOL       0.042700
    202 H115         5.8770    23.1130     0.1220 h1        18 MOL       0.042867
    203 H116         5.6630    21.6530     1.1470 h1        18 MOL       0.042867
    204 H117         3.1970    22.1820     1.3650 h1        18 MOL       0.042200
    205 H118         3.4260    23.6380     0.3350 h1        18 MOL       0.042200
    206 H119         2.3700    23.5580     3.0510 h1        18 MOL       0.033200
    207 H120         2.6360    25.0000     2.0200 h1        18 MOL       0.033200
    208 N3         -14.7720    16.7030   -31.6470 n         18 MOL      -0.572567
    209 H121       -13.3250    17.7770   -30.5940 h1        18 MOL       0.076367
    210 H122       -14.0940    16.4470   -29.6910 h1        18 MOL       0.076367
    211 C69        -15.8920    17.4230   -31.4800 c         18 MOL       0.658100
    212 H123       -14.6810    16.1310   -32.4530 hn        18 MOL       0.307500
    213 O17        -16.0450    18.1480   -30.4880 o         18 MOL      -0.605100
    214 C70        -16.9990    17.3560   -32.5120 c3        18 MOL      -0.159067
    215 C71        -18.2220    18.1730   -32.0250 c3        18 MOL       0.141733
    216 H124       -17.2610    16.3010   -32.6890 hc        18 MOL       0.076867
    217 H125       -16.6190    17.7560   -33.4660 hc        18 MOL       0.076867
    218 O18        -19.2950    18.1340   -32.9870 os        18 MOL      -0.436267
    219 H126       -18.5750    17.7560   -31.0710 h1        18 MOL       0.048033
    220 H127       -17.9120    19.2160   -31.8700 h1        18 MOL       0.048033
    221 C72        -20.3700    18.9230   -32.4750 c3        18 MOL       0.130067
    222 C73        -21.5550    18.9200   -33.4660 c3        18 MOL       0.128067
    223 H128       -20.6980    18.5060   -31.5090 h1        18 MOL       0.044533
    224 H129       -20.0190    19.9560   -32.3260 h1        18 MOL       0.044533
    225 O19        -22.6100    19.7220   -32.9430 os        18 MOL      -0.428600
    226 H130       -21.2300    19.3360   -34.4330 h1        18 MOL       0.042367
    227 H131       -21.9150    17.8900   -33.6130 h1        18 MOL       0.042367
    228 C74        -23.6930    19.7030   -33.8640 c3        18 MOL       0.128733
    229 C75        -24.8320    20.6130   -33.3460 c3        18 MOL       0.128067
    230 H132       -23.3440    20.0790   -34.8390 h1        18 MOL       0.044533
    231 H133       -24.0580    18.6710   -33.9790 h1        18 MOL       0.044533
    232 O20        -25.9140    20.6000   -34.2740 os        18 MOL      -0.429600
    233 H134       -24.4540    21.6420   -33.2460 h1        18 MOL       0.044533
    234 H136       -25.1860    20.2560   -32.3660 h1        18 MOL       0.044533
    235 C76        -26.9160    21.5210   -33.8260 c3        18 MOL       0.118400
    236 C77        -28.0830    21.5620   -34.7800 c3        18 MOL       0.129400
    237 H137       -27.2660    21.2210   -32.8260 h1        18 MOL       0.040200
    238 H138       -26.4730    22.5250   -33.7730 h1        18 MOL       0.040200
    239 O21        -29.0480    22.5310   -34.3160 os        18 MOL      -0.443600
    240 H139       -27.7190    21.8650   -35.7730 h1        18 MOL       0.052533
    241 H140       -28.5540    20.5680   -34.8490 h1        18 MOL       0.052533
    242 C78        -30.0630    22.5720   -35.2960 c3        18 MOL       0.100400
    243 C79        -31.1610    23.6510   -35.0150 c3        18 MOL       0.202800
    244 H141       -29.5840    22.8090   -36.2550 h1        18 MOL       0.060200
    245 H142       -30.5330    21.5770   -35.3670 h1        18 MOL       0.060200
    246 N4         -32.3230    23.8310   -36.0400 nh        18 MOL      -0.727267
    247 H143       -30.6430    24.6190   -34.9370 h1        18 MOL       0.077200
    248 H144       -31.6150    23.4220   -34.0420 h1        18 MOL       0.077200
    249 H145       -33.2040    24.0390   -35.6040 hn        18 MOL       0.443133
    250 N5           2.1040    25.8140     4.5610 n         18 MOL      -0.572567
    251 H146         4.0760    26.0450     3.8560 h1        18 MOL       0.076367
    252 H147         3.8070    24.6130     4.8880 h1        18 MOL       0.076367
    253 C80          2.0120    26.6010     5.6630 c         18 MOL       0.658100
    254 H148         1.2740    25.6250     4.0490 hn        18 MOL       0.307500
    255 O22          2.9990    26.8860     6.3580 o         18 MOL      -0.605100
    256 C81          0.6480    27.1600     6.0680 c3        18 MOL      -0.159067
    257 C82          0.7280    27.9970     7.3870 c3        18 MOL       0.141733
    258 H149         0.2670    27.7810     5.2410 hc        18 MOL       0.076867
    259 H150        -0.0560    26.3200     6.1780 hc        18 MOL       0.076867
    260 O23         -0.5750    28.5120     7.7430 os        18 MOL      -0.436267
    261 H151         1.1000    27.3570     8.2000 h1        18 MOL       0.048033
    262 C83         -0.4610    29.2800     8.9450 c3        18 MOL       0.130067
    263 C84         -1.8550    29.8330     9.3390 c3        18 MOL       0.128067
    264 H152         0.2360    30.1160     8.7770 h1        18 MOL       0.044533
    265 H153        -0.0760    28.6380     9.7530 h1        18 MOL       0.044533
    266 O24         -1.7620    30.6120    10.5350 os        18 MOL      -0.428600
    267 H154        -2.5490    28.9950     9.5060 h1        18 MOL       0.042367
    268 H155        -2.2390    30.4690     8.5260 h1        18 MOL       0.042367
    269 C85         -3.0700    31.0890    10.8490 c3        18 MOL       0.128733
    270 C86         -3.0340    31.9860    12.1140 c3        18 MOL       0.128067
    271 H156        -3.7380    30.2310    11.0210 h1        18 MOL       0.044533
    272 H157        -3.4480    31.6800    10.0000 h1        18 MOL       0.044533
    273 O25         -4.3500    32.4560    12.3920 os        18 MOL      -0.429600
    274 H158        -2.6580    31.4140    12.9780 h1        18 MOL       0.044533
    275 H159        -2.3740    32.8490    11.9300 h1        18 MOL       0.044533
    276 C87         -4.3050    33.3450    13.5060 c3        18 MOL       0.118400
    277 C88         -5.7030    33.8730    13.7770 c3        18 MOL       0.129400
    278 H160        -3.9240    32.8160    14.3940 h1        18 MOL       0.040200
    279 H161        -3.6390    34.1880    13.2660 h1        18 MOL       0.040200
    280 O26         -5.6140    34.8040    14.8660 os        18 MOL      -0.443600
    281 H162        -6.0540    34.3850    12.8700 h1        18 MOL       0.052533
    282 H163        -6.3960    33.0670    14.0280 h1        18 MOL       0.052533
    283 C89         -6.8570    35.4850    15.0600 c3        18 MOL       0.100400
    284 C90         -6.7170    36.5480    16.2030 c3        18 MOL       0.202800
    285 H164        -7.1340    35.9920    14.1250 h1        18 MOL       0.060200
    286 H165        -7.6340    34.7520    15.3240 h1        18 MOL       0.060200
    287 N6          -8.0100    37.2280    16.4070 nh        18 MOL      -0.727267
    288 H166        -5.9380    37.2690    15.9480 h1        18 MOL       0.077200
    289 H167        -8.6890    36.7060    16.9010 hn        18 MOL       0.443133
    290 N7          44.6570    -1.7600    -8.8060 n         18 MOL      -0.572567
    291 H168        42.7530    -1.8600    -7.9570 h1        18 MOL       0.076367
    292 H169        43.4150    -0.2090    -8.1960 h1        18 MOL       0.076367
    293 C91         45.5380    -1.6570    -7.8130 c         18 MOL       0.658100
    294 H170        44.8650    -2.3840    -9.5960 hn        18 MOL       0.307500
    295 O27         45.2490    -1.0000    -6.8070 o         18 MOL      -0.605100
    296 C92         46.8820    -2.3300    -7.9050 c3        18 MOL      -0.159067
    297 C93         47.7200    -1.9940    -6.6560 c3        18 MOL       0.141733
    298 H171        47.3860    -2.0010    -8.8270 hc        18 MOL       0.076867
    299 H172        46.7310    -3.4170    -7.9950 hc        18 MOL       0.076867
    300 O28         49.0010    -2.6330    -6.7270 os        18 MOL      -0.436267
    301 H173        47.1840    -2.3440    -5.7630 h1        18 MOL       0.048033
    302 H174        47.8550    -0.9050    -6.5940 h1        18 MOL       0.048033
    303 C94         49.7320    -2.3090    -5.5530 c3        18 MOL       0.130067
    304 C95         51.1080    -2.9970    -5.6200 c3        18 MOL       0.128067
    305 H175        49.1810    -2.6660    -4.6690 h1        18 MOL       0.044533
    306 H176        49.8630    -1.2170    -5.4890 h1        18 MOL       0.044533
    307 O29         51.8690    -2.7030    -4.4530 os        18 MOL      -0.428600
    308 H177        51.6530    -2.6410    -6.5080 h1        18 MOL       0.042367
    309 H178        50.9660    -4.0860    -5.6920 h1        18 MOL       0.042367
    310 C96         53.1100    -3.3800    -4.5870 c3        18 MOL       0.128733
    311 C97         54.0020    -3.1510    -3.3480 c3        18 MOL       0.128067
    312 H179        53.6280    -3.0110    -5.4850 h1        18 MOL       0.044533
    313 H180        52.9170    -4.4590    -4.6960 h1        18 MOL       0.044533
    314 O30         55.2110    -3.8640    -3.5460 os        18 MOL      -0.429600
    315 H181        53.4930    -3.5320    -2.4480 h1        18 MOL       0.044533
    316 H182        54.2170    -2.0780    -3.2240 h1        18 MOL       0.044533
    317 C98         56.0560    -3.7220    -2.4130 c3        18 MOL       0.118400
    318 C99         57.3250    -4.5300    -2.6740 c3        18 MOL       0.129400
    319 H183        55.5370    -4.1070    -1.5220 h1        18 MOL       0.040200
    320 H184        56.3090    -2.6650    -2.2610 h1        18 MOL       0.040200
    321 O31         58.2200    -4.4460    -1.5490 os        18 MOL      -0.443600
    322 H185        57.8300    -4.1560    -3.5800 h1        18 MOL       0.052533
    323 H186        57.0350    -5.5810    -2.8240 h1        18 MOL       0.052533
    324 C100        59.3190    -5.3430    -1.7600 c3        18 MOL       0.100400
    325 C101        60.2550    -5.3760    -0.4880 c3        18 MOL       0.202800
    326 H187        59.8890    -5.0390    -2.6520 h1        18 MOL       0.060200
    327 H188        58.9040    -6.3500    -1.9150 h1        18 MOL       0.060200
    328 N8          61.3790    -6.3770    -0.5980 nh        18 MOL      -0.727267
    329 H189        59.6360    -5.6490     0.3750 h1        18 MOL       0.077200
    330 H190        60.6740    -4.3740    -0.3270 h1        18 MOL       0.077200
    331 H191        62.3020    -5.9870    -0.6110 hn        18 MOL       0.443133
    332 H192         1.4230    28.8370     7.2400 h1        18 MOL       0.048033
    333 H193        -6.4420    36.0190    17.1230 h1        18 MOL       0.077200
    334 C102        61.2780    -7.8300    -0.6210 ca        18 MOL       0.301600
    335 C103        60.0310    -8.7210    -0.5760 ca        18 MOL      -0.277200
    336 C104        60.1250   -10.0080    -0.7130 ca        18 MOL       0.035333
    337 H194        59.2570   -10.6310    -0.6880 ha        18 MOL       0.197667
    338 C105        61.3390   -10.5520    -0.8310 ca        18 MOL      -0.253200
    339 C106        62.4620    -9.8520    -0.8430 ca        18 MOL       0.005333
    340 H196        63.3790   -10.3440    -0.9320 ha        18 MOL       0.177667
    341 C107        62.4320    -8.4500    -0.7530 ca        18 MOL      -0.233667
    342 H197        63.3190    -7.9070    -0.8050 ha        18 MOL       0.155333
    343 N9          61.4240   -11.7560    -0.9040 no        18 MOL       0.327200
    344 O32         62.5730   -12.2260    -0.8750 o         18 MOL      -0.208333
    345 O33         60.5020   -12.4790    -0.9930 o         18 MOL      -0.208333
    346 N10         58.8340    -8.3060    -0.4050 no        18 MOL       0.319867
    347 O34         57.8970    -8.6770    -1.2130 o         18 MOL      -0.207000
    348 O35         58.6150    -7.3860     0.2650 o         18 MOL      -0.207000
    349 C108       -32.2230    24.1710   -37.4510 ca        18 MOL       0.301600
    350 C109       -31.2990    23.5840   -38.4820 ca        18 MOL      -0.277200
    351 C110       -31.2300    24.0580   -39.6900 ca        18 MOL       0.035333
    352 H198       -30.5840    23.6230   -40.4240 ha        18 MOL       0.197667
    353 C111       -32.0600    25.0500   -40.0230 ca        18 MOL      -0.253200
    354 C112       -32.9430    25.5770   -39.1920 ca        18 MOL       0.005333
    355 H199       -33.5750    26.3410   -39.5220 ha        18 MOL       0.177667
    356 C113       -33.0250    25.1320   -37.8590 ca        18 MOL      -0.233667
    357 H200       -33.6920    25.5870   -37.1980 ha        18 MOL       0.155333
    358 N11        -32.0340    25.4660   -41.1610 no        18 MOL       0.327200
    359 O36        -32.9230    26.2790   -41.4610 o         18 MOL      -0.208333
    360 O37        -31.2350    25.1530   -41.9640 o         18 MOL      -0.208333
    361 N12        -30.6020    22.5530   -38.2700 no        18 MOL       0.319867
    362 O38        -29.3960    22.4550   -38.7020 o         18 MOL      -0.207000
    363 O39        -31.0390    21.7090   -37.5950 o         18 MOL      -0.207000
    364 C114        -8.3560    38.5740    16.0650 ca        18 MOL       0.301600
    365 C115        -7.5650    39.6360    15.2770 ca        18 MOL      -0.277200
    366 C116        -8.0580    40.8390    15.1430 ca        18 MOL       0.035333
    367 H201        -7.5340    41.5880    14.5930 ha        18 MOL       0.197667
    368 C117        -9.2700    41.1100    15.6610 ca        18 MOL      -0.253200
    369 C118       -10.0020    40.2350    16.3230 ca        18 MOL       0.005333
    370 H202       -10.9440    40.5150    16.6910 ha        18 MOL       0.177667
    371 C119        -9.5310    38.9390    16.5400 ca        18 MOL      -0.233667
    372 H203       -10.1090    38.2650    17.0860 ha        18 MOL       0.155333
    373 N13         -9.7430    42.2240    15.4910 no        18 MOL       0.327200
    374 O40        -10.9280    42.4090    15.9130 o         18 MOL      -0.208333
    375 O41         -9.1700    43.1040    14.9690 o         18 MOL      -0.208333
    376 N14         -6.4320    39.4810    14.6560 no        18 MOL       0.319867
    377 O42         -5.7600    40.5100    14.2450 o         18 MOL      -0.207000
    378 O43         -6.0910    38.4110    14.3310 o         18 MOL      -0.207000
@<TRIPOS>BOND
     1     1    10 1   
     2     1    13 1   
     3     1    91 1   
     4     2    11 1   
     5     2    12 1   
     6     2    92 1   
     7     3    14 1   
     8     3    15 1   
     9     3    93 1   
    10     4     5 ar  
    11     4     9 ar  
    12     4    15 1   
    13     5     6 ar  
    14     5    88 1   
    15     6     7 ar  
    16     6    11 1   
    17     7     8 ar  
    18     7    89 1   
    19     8     9 ar  
    20     8    10 1   
    21     9    90 1   
    22    10    73 2   
    23    11    74 2   
    24    12    54 1   
    25    12   170 1   
    26    12   171 1   
    27    13    35 1   
    28    13   132 1   
    29    13   133 1   
    30    14    16 1   
    31    14    94 1   
    32    14    95 1   
    33    15    75 2   
    34    16    17 1   
    35    16    96 1   
    36    16    97 1   
    37    17    18 1   
    38    17    98 1   
    39    17    99 1   
    40    18    19 1   
    41    18   100 1   
    42    18   101 1   
    43    19    20 1   
    44    19   102 1   
    45    19   103 1   
    46    20    21 1   
    47    20   104 1   
    48    20   105 1   
    49    21    22 1   
    50    21   106 1   
    51    21   107 1   
    52    22    23 1   
    53    22   108 1   
    54    22   109 1   
    55    23    24 1   
    56    23   110 1   
    57    23   111 1   
    58    24    25 1   
    59    24   112 1   
    60    24   113 1   
    61    25    26 1   
    62    25   114 1   
    63    25   115 1   
    64    26    76 1   
    65    26   116 1   
    66    26   117 1   
    67    27    28 1   
    68    27    76 1   
    69    27   118 1   
    70    27   119 1   
    71    28    77 1   
    72    28   120 1   
    73    28   121 1   
    74    29    30 1   
    75    29    77 1   
    76    29   122 1   
    77    29   123 1   
    78    30    78 1   
    79    30   124 1   
    80    30   125 1   
    81    31    32 1   
    82    31    78 1   
    83    31   126 1   
    84    31   127 1   
    85    32    79 1   
    86    32   128 1   
    87    32   129 1   
    88    33    34 1   
    89    33    79 1   
    90    33   130 1   
    91    33   131 1   
    92    34   208 1   
    93    34   209 1   
    94    34   210 1   
    95    35    36 1   
    96    35   134 1   
    97    35   135 1   
    98    36    37 1   
    99    36   136 1   
   100    36   137 1   
   101    37    38 1   
   102    37   138 1   
   103    37   139 1   
   104    38    39 1   
   105    38   140 1   
   106    38   141 1   
   107    39    40 1   
   108    39   142 1   
   109    39   143 1   
   110    40    41 1   
   111    40   144 1   
   112    40   145 1   
   113    41    42 1   
   114    41   146 1   
   115    41   147 1   
   116    42    43 1   
   117    42   148 1   
   118    42   149 1   
   119    43    44 1   
   120    43   150 1   
   121    43   151 1   
   122    44    45 1   
   123    44   152 1   
   124    44   153 1   
   125    45    80 1   
   126    45   154 1   
   127    45   155 1   
   128    46    47 1   
   129    46    80 1   
   130    46   156 1   
   131    46   157 1   
   132    47    81 1   
   133    47   158 1   
   134    47   159 1   
   135    48    49 1   
   136    48    81 1   
   137    48   160 1   
   138    48   161 1   
   139    49    82 1   
   140    49   162 1   
   141    49   163 1   
   142    50    51 1   
   143    50    82 1   
   144    50   164 1   
   145    50   165 1   
   146    51    83 1   
   147    51   166 1   
   148    51   167 1   
   149    52    53 1   
   150    52    83 1   
   151    52   168 1   
   152    52   169 1   
   153    53   290 1   
   154    53   291 1   
   155    53   292 1   
   156    54    55 1   
   157    54   172 1   
   158    54   173 1   
   159    55    56 1   
   160    55   174 1   
   161    55   175 1   
   162    56    57 1   
   163    56   176 1   
   164    56   177 1   
   165    57    58 1   
   166    57   178 1   
   167    57   179 1   
   168    58    59 1   
   169    58   180 1   
   170    58   181 1   
   171    59    60 1   
   172    59   182 1   
   173    59   183 1   
   174    60    61 1   
   175    60   184 1   
   176    60   185 1   
   177    61    62 1   
   178    61   186 1   
   179    61   187 1   
   180    62    63 1   
   181    62   188 1   
   182    62   189 1   
   183    63    64 1   
   184    63   190 1   
   185    63   191 1   
   186    64    84 1   
   187    64   192 1   
   188    64   193 1   
   189    65    66 1   
   190    65    84 1   
   191    65   194 1   
   192    65   195 1   
   193    66    85 1   
   194    66   196 1   
   195    66   197 1   
   196    67    68 1   
   197    67    85 1   
   198    67   198 1   
   199    67   199 1   
   200    68    86 1   
   201    68   200 1   
   202    68   201 1   
   203    69    70 1   
   204    69    86 1   
   205    69   202 1   
   206    69   203 1   
   207    70    87 1   
   208    70   204 1   
   209    70   205 1   
   210    71    72 1   
   211    71    87 1   
   212    71   206 1   
   213    71   207 1   
   214    72   250 1   
   215    72   251 1   
   216    72   252 1   
   217   208   211 1   
   218   208   212 1   
   219   211   213 2   
   220   211   214 1   
   221   214   215 1   
   222   214   216 1   
   223   214   217 1   
   224   215   218 1   
   225   215   219 1   
   226   215   220 1   
   227   218   221 1   
   228   221   222 1   
   229   221   223 1   
   230   221   224 1   
   231   222   225 1   
   232   222   226 1   
   233   222   227 1   
   234   225   228 1   
   235   228   229 1   
   236   228   230 1   
   237   228   231 1   
   238   229   232 1   
   239   229   233 1   
   240   229   234 1   
   241   232   235 1   
   242   235   236 1   
   243   235   237 1   
   244   235   238 1   
   245   236   239 1   
   246   236   240 1   
   247   236   241 1   
   248   239   242 1   
   249   242   243 1   
   250   242   244 1   
   251   242   245 1   
   252   243   246 1   
   253   243   247 1   
   254   243   248 1   
   255   246   249 1   
   256   246   349 1   
   257   250   253 1   
   258   250   254 1   
   259   253   255 2   
   260   253   256 1   
   261   256   257 1   
   262   256   258 1   
   263   256   259 1   
   264   257   260 1   
   265   257   261 1   
   266   257   332 1   
   267   260   262 1   
   268   262   263 1   
   269   262   264 1   
   270   262   265 1   
   271   263   266 1   
   272   263   267 1   
   273   263   268 1   
   274   266   269 1   
   275   269   270 1   
   276   269   271 1   
   277   269   272 1   
   278   270   273 1   
   279   270   274 1   
   280   270   275 1   
   281   273   276 1   
   282   276   277 1   
   283   276   278 1   
   284   276   279 1   
   285   277   280 1   
   286   277   281 1   
   287   277   282 1   
   288   280   283 1   
   289   283   284 1   
   290   283   285 1   
   291   283   286 1   
   292   284   287 1   
   293   284   288 1   
   294   284   333 1   
   295   287   289 1   
   296   287   364 1   
   297   290   293 1   
   298   290   294 1   
   299   293   295 2   
   300   293   296 1   
   301   296   297 1   
   302   296   298 1   
   303   296   299 1   
   304   297   300 1   
   305   297   301 1   
   306   297   302 1   
   307   300   303 1   
   308   303   304 1   
   309   303   305 1   
   310   303   306 1   
   311   304   307 1   
   312   304   308 1   
   313   304   309 1   
   314   307   310 1   
   315   310   311 1   
   316   310   312 1   
   317   310   313 1   
   318   311   314 1   
   319   311   315 1   
   320   311   316 1   
   321   314   317 1   
   322   317   318 1   
   323   317   319 1   
   324   317   320 1   
   325   318   321 1   
   326   318   322 1   
   327   318   323 1   
   328   321   324 1   
   329   324   325 1   
   330   324   326 1   
   331   324   327 1   
   332   325   328 1   
   333   325   329 1   
   334   325   330 1   
   335   328   331 1   
   336   328   334 1   
   337   334   335 ar  
   338   334   341 ar  
   339   335   336 ar  
   340   335   346 1   
   341   336   337 1   
   342   336   338 ar  
   343   338   339 ar  
   344   338   343 1   
   345   339   340 1   
   346   339   341 ar  
   347   341   342 1   
   348   343   344 1   
   349   343   345 1   
   350   346   347 1   
   351   346   348 1   
   352   349   350 ar  
   353   349   356 ar  
   354   350   351 ar  
   355   350   361 1   
   356   351   352 1   
   357   351   353 ar  
   358   353   354 ar  
   359   353   358 1   
   360   354   355 1   
   361   354   356 ar  
   362   356   357 1   
   363   358   359 1   
   364   358   360 1   
   365   361   362 1   
   366   361   363 1   
   367   364   365 ar  
   368   364   371 ar  
   369   365   366 ar  
   370   365   376 1   
   371   366   367 1   
   372   366   368 ar  
   373   368   369 ar  
   374   368   373 1   
   375   369   370 1   
   376   369   371 ar  
   377   371   372 1   
   378   373   374 1   
   379   373   375 1   
   380   376   377 1   
   381   376   378 1   
@<TRIPOS>SUBSTRUCTURE
     1 MOL         1 TEMP              0 ****  ****    0 ROOT
