@<TRIPOS>MOLECULE
MOL
  378   381     1     0     0
SMALL
bcc


@<TRIPOS>ATOM
      1 N           13.2960    -2.6960   -14.7910 n         15 MOL      -0.558900
      2 N1          11.1920     1.4750   -10.3490 n         15 MOL      -0.558900
      3 N2           7.5680     0.3760   -15.2600 n         15 MOL      -0.558900
      4 C            9.5660    -0.5920   -14.3540 ca        15 MOL      -0.157933
      5 C1           9.3780    -0.0270   -13.0840 ca        15 MOL      -0.037000
      6 C2          10.4320     0.0950   -12.1750 ca        15 MOL      -0.157933
      7 C3          11.6940    -0.3980   -12.5370 ca        15 MOL      -0.037000
      8 C4          11.8980    -1.0160   -13.7770 ca        15 MOL      -0.157933
      9 C5          10.8270    -1.1080   -14.6790 ca        15 MOL      -0.037000
     10 C6          13.2650    -1.5290   -14.1400 c         15 MOL       0.669033
     11 C7          10.1860     0.7420   -10.8370 c         15 MOL       0.669033
     12 C8          11.1730     2.0600    -9.0420 c3        15 MOL       0.083667
     13 C9          14.5160    -3.2860   -15.2600 c3        15 MOL       0.083667
     14 C10          6.4520     0.4680   -16.1450 c3        15 MOL       0.083667
     15 C11          8.4380    -0.6350   -15.3550 c         15 MOL       0.669033
     16 C12          5.4490     1.5110   -15.6380 c3        15 MOL      -0.105400
     17 C13          4.2740     1.5770   -16.6170 c3        15 MOL      -0.077400
     18 C14          3.2540     2.6120   -16.1260 c3        15 MOL      -0.078733
     19 C15          2.0840     2.6640   -17.1170 c3        15 MOL      -0.079400
     20 C16          1.0450     3.6880   -16.6460 c3        15 MOL      -0.079067
     21 C17         -0.1050     3.7110   -17.6580 c3        15 MOL      -0.079400
     22 C18         -1.1730     4.7220   -17.2210 c3        15 MOL      -0.079400
     23 C19         -2.3020     4.7110   -18.2630 c3        15 MOL      -0.078400
     24 C20         -3.4070     5.7040   -17.8760 c3        15 MOL      -0.078400
     25 C21         -4.5010     5.6470   -18.9550 c3        15 MOL      -0.084400
     26 C22         -5.6440     6.6220   -18.6220 c3        15 MOL       0.133400
     27 C23         -7.6930     7.3910   -19.4020 c3        15 MOL       0.128067
     28 C24         -8.6540     7.2430   -20.5150 c3        15 MOL       0.130400
     29 C25        -10.5970     8.0630   -21.1760 c3        15 MOL       0.129733
     30 C26        -11.5900     8.9950   -20.7570 c3        15 MOL       0.129733
     31 C27        -13.5150     9.7360   -21.5640 c3        15 MOL       0.130067
     32 C28        -14.3090     9.4930   -22.7620 c3        15 MOL       0.128733
     33 C29        -16.2220    10.1310   -23.8140 c3        15 MOL       0.105400
     34 C30        -17.4110    11.0580   -23.6580 c3        15 MOL       0.085333
     35 C31         10.2170     3.2400    -8.8590 c3        15 MOL      -0.105400
     36 C32         10.4550     3.6480    -7.4060 c3        15 MOL      -0.077400
     37 C33          9.6290     4.8430    -6.9520 c3        15 MOL      -0.078733
     38 C34         10.0790     5.0820    -5.5030 c3        15 MOL      -0.079400
     39 C35          9.3940     6.2730    -4.8330 c3        15 MOL      -0.079067
     40 C36         10.0140     6.3530    -3.4300 c3        15 MOL      -0.079400
     41 C37          9.4620     7.5180    -2.6080 c3        15 MOL      -0.079400
     42 C38         10.2030     7.4770    -1.2580 c3        15 MOL      -0.078400
     43 C39          9.7650     8.6130    -0.3240 c3        15 MOL      -0.078400
     44 C40         10.5900     8.4770     0.9700 c3        15 MOL      -0.084400
     45 C41         10.2380     9.5860     1.9750 c3        15 MOL       0.133400
     46 C42         10.7980    10.3870     4.0770 c3        15 MOL       0.128067
     47 C43         11.6940    10.1480     5.2250 c3        15 MOL       0.130400
     48 C43         12.1360    11.1040     7.1760 c3        15 MOL       0.129733
     49 C44         11.6760    12.2270     7.9170 c3        15 MOL       0.129733
     50 C45         12.1170    13.2290     9.8270 c3        15 MOL       0.130067
     51 C46         13.0440    13.0660    10.9460 c3        15 MOL       0.128733
     52 C47         13.6590    14.0260    12.9300 c3        15 MOL       0.105400
     53 C48         13.3240    15.1960    13.8440 c3        15 MOL       0.085333
     54 C49         15.3990    -3.7760   -14.1060 c3        15 MOL      -0.105400
     55 C50         16.6440    -4.3850   -14.7430 c3        15 MOL      -0.077400
     56 C51         17.5970    -4.9080   -13.6780 c3        15 MOL      -0.078733
     57 C52         18.7970    -5.5160   -14.4020 c3        15 MOL      -0.079400
     58 C53         19.8020    -6.0570   -13.3950 c3        15 MOL      -0.079067
     59 C54         20.9670    -6.6610   -14.1750 c3        15 MOL      -0.079400
     60 C55         22.0050    -7.2050   -13.2030 c3        15 MOL      -0.079400
     61 C56         23.1540    -7.8120   -14.0090 c3        15 MOL      -0.078400
     62 C57         24.2140    -8.3470   -13.0530 c3        15 MOL      -0.078400
     63 C58         25.3510    -8.9600   -13.8710 c3        15 MOL      -0.084400
     64 C59         26.4250    -9.4820   -12.9160 c3        15 MOL       0.133400
     65 C60         28.4690   -10.5010   -12.8180 c3        15 MOL       0.128067
     66 C61         29.5220   -11.1440   -13.6170 c3        15 MOL       0.130400
     67 C62         31.4260   -12.1900   -13.1700 c3        15 MOL       0.129733
     68 C63         32.2040   -12.4480   -12.0170 c3        15 MOL       0.129733
     69 C64         34.0650   -13.5320   -11.5650 c3        15 MOL       0.130067
     70 C65         34.9610   -14.3840   -12.3060 c3        15 MOL       0.128733
     71 C66         36.7120   -15.7680   -11.9770 c3        15 MOL       0.105400
     72 C67         37.6270   -16.2100   -10.8710 c3        15 MOL       0.085333
     73 O           14.2800    -0.8970   -13.8420 o         15 MOL      -0.606433
     74 O1           9.1070     0.6120   -10.2570 o         15 MOL      -0.606433
     75 O2           8.3490    -1.5220   -16.2040 o         15 MOL      -0.606433
     76 O5          -6.6320     6.5310   -19.6580 os        15 MOL      -0.428267
     77 O6          -9.6830     8.1120   -20.2180 os        15 MOL      -0.430600
     78 O7         -12.4640     8.9100   -21.7510 os        15 MOL      -0.430600
     79 O8         -15.4020    10.2950   -22.6730 os        15 MOL      -0.425600
     80 O9          11.0560     9.4060     3.1410 os        15 MOL      -0.428267
     81 O10         11.3830    11.1620     6.0920 os        15 MOL      -0.430600
     82 O11         12.4310    12.1950     9.0060 os        15 MOL      -0.430600
     83 O12         12.7850    14.0890    11.8140 os        15 MOL      -0.425600
     84 O13         27.4850   -10.0680   -13.6740 os        15 MOL      -0.428267
     85 O14         30.4220   -11.5170   -12.6610 os        15 MOL      -0.430600
     86 O15         33.1920   -13.1660   -12.5150 os        15 MOL      -0.430600
     87 O16         35.8570   -14.8160   -11.4050 os        15 MOL      -0.425600
     88 H253         8.4390     0.3060   -12.8150 ha        15 MOL       0.163667
     89 H254        12.4840    -0.3040   -11.8800 ha        15 MOL       0.163667
     90 H255        10.9700    -1.5620   -15.5950 ha        15 MOL       0.163667
     91 H250        12.4340    -3.1430   -14.9540 hn        15 MOL       0.311500
     92 H251        12.0010     1.5600   -10.9040 hn        15 MOL       0.311500
     93 H7          12.1900     2.4070    -8.8080 h1        15 MOL       0.064367
     94 H8          10.8720     1.2850    -8.3220 h1        15 MOL       0.064367
     95 H9          15.0870    -2.5280   -15.8170 h1        15 MOL       0.064367
     96 H11         14.2780    -4.1360   -15.9140 h1        15 MOL       0.064367
     97 H252         7.7710     1.0660   -14.5870 hn        15 MOL       0.311500
     98 H14          5.9750    -0.5200   -16.2240 h1        15 MOL       0.064367
     99 H15          6.8130     0.7560   -17.1420 h1        15 MOL       0.064367
    100 H16          5.9350     2.4960   -15.5780 hc        15 MOL       0.046033
    101 H17          5.0830     1.2200   -14.6430 hc        15 MOL       0.046033
    102 H18          3.7940     0.5900   -16.6770 hc        15 MOL       0.043367
    103 H19          4.6440     1.8660   -17.6110 hc        15 MOL       0.043367
    104 H20          3.7320     3.5990   -16.0640 hc        15 MOL       0.040867
    105 H21          2.8850     2.3190   -15.1330 hc        15 MOL       0.040867
    106 H22          1.6140     1.6720   -17.1790 hc        15 MOL       0.040867
    107 H23          2.4580     2.9550   -18.1100 hc        15 MOL       0.040867
    108 H24          1.5060     4.6850   -16.5850 hc        15 MOL       0.040033
    109 H25          0.6620     3.3980   -15.6570 hc        15 MOL       0.040033
    110 H26         -0.5560     2.7110   -17.7190 hc        15 MOL       0.040367
    111 H27          0.2850     3.9980   -18.6450 hc        15 MOL       0.040367
    112 H28         -0.7290     5.7270   -17.1610 hc        15 MOL       0.039700
    113 H29         -1.5700     4.4350   -16.2360 hc        15 MOL       0.039700
    114 H30         -2.7300     3.7000   -18.3220 hc        15 MOL       0.041700
    115 H31         -1.8910     4.9900   -19.2440 hc        15 MOL       0.041700
    116 H32         -2.9920     6.7210   -17.8220 hc        15 MOL       0.040367
    117 H33         -3.8320     5.4260   -16.9010 hc        15 MOL       0.040367
    118 H34         -4.9000     4.6240   -19.0090 hc        15 MOL       0.055200
    119 H35         -4.0620     5.9180   -19.9270 hc        15 MOL       0.055200
    120 H36         -5.2530     7.6490   -18.5720 h1        15 MOL       0.027533
    121 H37         -6.0930     6.3500   -17.6550 h1        15 MOL       0.027533
    122 H38         -7.3400     8.4310   -19.3590 h1        15 MOL       0.039700
    123 H39         -8.1820     7.1240   -18.4550 h1        15 MOL       0.039700
    124 H40         -9.0250     6.2070   -20.5670 h1        15 MOL       0.042033
    125 H41         -8.1760     7.5200   -21.4680 h1        15 MOL       0.042033
    126 H42        -11.0310     7.0570   -21.2590 h1        15 MOL       0.042033
    127 H43        -10.1720     8.3740   -22.1410 h1        15 MOL       0.042033
    128 H44        -11.1670    10.0080   -20.6810 h1        15 MOL       0.042367
    129 H45        -12.0360     8.6900   -19.7990 h1        15 MOL       0.042367
    130 H46        -13.1900    10.7880   -21.5190 h1        15 MOL       0.042867
    131 H47        -14.0770     9.4690   -20.6560 h1        15 MOL       0.042867
    132 H48        -14.6060     8.4360   -22.8020 h1        15 MOL       0.041867
    133 H49        -13.7170     9.7480   -23.6520 h1        15 MOL       0.041867
    134 H50        -16.5640     9.0860   -23.8830 h1        15 MOL       0.033533
    135 H51        -15.6570    10.3980   -24.7210 h1        15 MOL       0.033533
    136 H52          9.1720     2.9340    -9.0210 hc        15 MOL       0.046033
    137 H53         10.4810     4.0650    -9.5370 hc        15 MOL       0.046033
    138 H54         11.5170     3.9060    -7.2980 hc        15 MOL       0.043367
    139 H55         10.2250     2.7930    -6.7550 hc        15 MOL       0.043367
    140 H56          8.5560     4.6160    -7.0040 hc        15 MOL       0.040867
    141 H57          9.8590     5.7190    -7.5720 hc        15 MOL       0.040867
    142 H58         11.1630     5.2690    -5.5090 hc        15 MOL       0.040867
    143 H59          9.8740     4.1770    -4.9130 hc        15 MOL       0.040867
    144 H60          8.3080     6.1130    -4.7720 hc        15 MOL       0.040033
    145 H61          9.6070     7.1960    -5.3910 hc        15 MOL       0.040033
    146 H62         11.1000     6.4860    -3.5380 hc        15 MOL       0.040367
    147 H63          9.8170     5.4120    -2.8970 hc        15 MOL       0.040367
    148 H64          8.3790     7.4010    -2.4590 hc        15 MOL       0.039700
    149 H65          9.6680     8.4690    -3.1210 hc        15 MOL       0.039700
    150 H66         11.2820     7.5740    -1.4460 hc        15 MOL       0.041700
    151 H67         10.0060     6.5130    -0.7680 hc        15 MOL       0.041700
    152 H68          8.6920     8.5280    -0.1010 hc        15 MOL       0.040367
    153 H69          9.9710     9.5840    -0.7960 hc        15 MOL       0.040367
    154 H70         11.6580     8.5500     0.7180 hc        15 MOL       0.055200
    155 H71         10.3900     7.4960     1.4250 hc        15 MOL       0.055200
    156 H72          9.1740     9.5200     2.2480 h1        15 MOL       0.027533
    157 H73         10.4450    10.5690     1.5270 h1        15 MOL       0.027533
    158 H74          9.7520    10.3380     4.4080 h1        15 MOL       0.039700
    159 H75         11.0080    11.3800     3.6540 h1        15 MOL       0.039700
    160 H76         12.7470    10.2130     4.9080 h1        15 MOL       0.042033
    161 H77         11.4940     9.1650     5.6790 h1        15 MOL       0.042033
    162 H78         13.2010    11.2180     6.9290 h1        15 MOL       0.042033
    163 H79         11.9680    10.1730     7.7360 h1        15 MOL       0.042033
    164 H80         10.6100    12.1150     8.1640 h1        15 MOL       0.042367
    165 H81         11.8410    13.1520     7.3460 h1        15 MOL       0.042367
    166 H82         11.0730    13.1580    10.1710 h1        15 MOL       0.042867
    167 H83         12.2870    14.1950     9.3240 h1        15 MOL       0.042867
    168 H84         14.0770    13.1270    10.5770 h1        15 MOL       0.041867
    169 H85         12.8760    12.0940    11.4300 h1        15 MOL       0.041867
    170 H86         14.7020    14.1040    12.5880 h1        15 MOL       0.033533
    171 H87         13.5140    13.0750    13.4660 h1        15 MOL       0.033533
    172 H88         14.8680    -4.5400   -13.5200 hc        15 MOL       0.046033
    173 H89         15.6790    -2.9350   -13.4550 hc        15 MOL       0.046033
    174 H90         17.1560    -3.6200   -15.3430 hc        15 MOL       0.043367
    175 H91         16.3400    -5.2160   -15.3950 hc        15 MOL       0.043367
    176 H92         17.0980    -5.6760   -13.0730 hc        15 MOL       0.040867
    177 H93         17.9250    -4.0820   -13.0300 hc        15 MOL       0.040867
    178 H94         19.2810    -4.7450   -15.0180 hc        15 MOL       0.040867
    179 H95         18.4510    -6.3360   -15.0480 hc        15 MOL       0.040867
    180 H96         19.3310    -6.8320   -12.7730 hc        15 MOL       0.040033
    181 H97         20.1640    -5.2400   -12.7550 hc        15 MOL       0.040033
    182 H98         21.4270    -5.8870   -14.8050 hc        15 MOL       0.040367
    183 H99         20.5950    -7.4780   -14.8110 hc        15 MOL       0.040367
    184 H100        21.5500    -7.9770   -12.5660 hc        15 MOL       0.039700
    185 H101        22.3830    -6.3850   -12.5750 hc        15 MOL       0.039700
    186 H102        23.6000    -7.0410   -14.6530 hc        15 MOL       0.041700
    187 H103        22.7700    -8.6330   -14.6320 hc        15 MOL       0.041700
    188 H104        23.7740    -9.1160   -12.4020 hc        15 MOL       0.040367
    189 H105        24.6030    -7.5230   -12.4390 hc        15 MOL       0.040367
    190 H106        25.7850    -8.1950   -14.5300 hc        15 MOL       0.055200
    191 H107        24.9580    -9.7890   -14.4780 hc        15 MOL       0.055200
    192 H108        25.9870   -10.2400   -12.2480 h1        15 MOL       0.027533
    193 H109        26.8150    -8.6450   -12.3170 h1        15 MOL       0.027533
    194 H110        28.0600   -11.2350   -12.1100 h1        15 MOL       0.039700
    195 H111        28.8940    -9.6510   -12.2670 h1        15 MOL       0.039700
    196 H112        29.9710   -10.4360   -14.3320 h1        15 MOL       0.042033
    197 H113        29.1180   -12.0210   -14.1480 h1        15 MOL       0.042033
    198 H114        31.9950   -11.5970   -13.8990 h1        15 MOL       0.042033
    199 H115        31.0840   -13.1320   -13.6220 h1        15 MOL       0.042033
    200 H116        31.6200   -13.0260   -11.2850 h1        15 MOL       0.042367
    201 H117        32.5600   -11.5090   -11.5690 h1        15 MOL       0.042367
    202 H118        33.5680   -14.1100   -10.7700 h1        15 MOL       0.042867
    203 H119        34.5890   -12.6610   -11.1380 h1        15 MOL       0.042867
    204 H120        35.4470   -13.8260   -13.1170 h1        15 MOL       0.041867
    205 H121        34.3910   -15.2290   -12.7170 h1        15 MOL       0.041867
    206 H122        37.2860   -15.3320   -12.8100 h1        15 MOL       0.033533
    207 H123        36.1210   -16.6250   -12.3360 h1        15 MOL       0.033533
    208 N3         -18.2770    10.9450   -24.7840 n         15 MOL      -0.570233
    209 H195       -17.0730    12.1000   -23.5700 h1        15 MOL       0.075533
    210 H124       -17.9720    10.8040   -22.7470 h1        15 MOL       0.075533
    211 C68        -19.3560    11.7220   -24.8630 c         15 MOL       0.658100
    212 H125       -18.0800    10.2950   -25.5070 hn        15 MOL       0.314500
    213 O17        -19.5940    12.5280   -23.9570 o         15 MOL      -0.608767
    214 C69        -20.2920    11.6260   -26.0480 c3        15 MOL      -0.158733
    215 C70        -21.5330    12.5220   -25.8180 c3        15 MOL       0.139733
    216 H126       -20.5770    10.5720   -26.1950 hc        15 MOL       0.076367
    217 H127       -19.7500    11.9400   -26.9540 hc        15 MOL       0.076367
    218 O18        -22.4390    12.4470   -26.9370 os        15 MOL      -0.437600
    219 H128       -21.2040    13.5620   -25.6830 h1        15 MOL       0.048367
    220 H129       -22.0500    12.1850   -24.9080 h1        15 MOL       0.048367
    221 C71        -23.5670    13.2750   -26.6520 c3        15 MOL       0.119400
    222 C72        -24.5880    13.2020   -27.8140 c3        15 MOL       0.129067
    223 H130       -24.0460    12.9210   -25.7260 h1        15 MOL       0.042367
    224 H131       -23.2330    14.3160   -26.5150 h1        15 MOL       0.042367
    225 O19        -25.7210    14.0120   -27.5050 os        15 MOL      -0.426267
    226 H132       -24.1230    13.5570   -28.7470 h1        15 MOL       0.049033
    227 H133       -24.9170    12.1590   -27.9420 h1        15 MOL       0.049033
    228 C73        -26.6700    13.8900   -28.5610 c3        15 MOL       0.117400
    229 C74        -27.9440    14.7000   -28.2110 c3        15 MOL       0.120400
    230 H134       -26.2290    14.2600   -29.5010 h1        15 MOL       0.045700
    231 H135       -26.9390    12.8280   -28.6760 h1        15 MOL       0.045700
    232 O20        -28.9190    14.5500   -29.2430 os        15 MOL      -0.420267
    233 H136       -28.3640    14.3140   -27.2700 h1        15 MOL       0.047200
    234 H137       -27.6940    15.7660   -28.0900 h1        15 MOL       0.047200
    235 C75        -30.1050    15.2380   -28.8400 c3        15 MOL       0.129733
    236 C76        -31.2040    15.0410   -29.8680 c3        15 MOL       0.100067
    237 H138       -29.8970    16.3150   -28.7270 h1        15 MOL       0.055867
    238 H139       -30.4410    14.8270   -27.8760 h1        15 MOL       0.055867
    239 O21        -32.3380    15.7190   -29.3590 os        15 MOL      -0.426267
    240 H140       -30.8850    15.4640   -30.8340 h1        15 MOL       0.046867
    241 H141       -31.4400    13.9820   -29.9910 h1        15 MOL       0.046867
    242 C77        -33.4220    15.6660   -30.2610 c3        15 MOL       0.104067
    243 C78        -34.6290    16.3800   -29.6160 c3        15 MOL       0.181133
    244 H142       -33.1460    16.1620   -31.2050 h1        15 MOL       0.054533
    245 H143       -33.6780    14.6140   -30.4570 h1        15 MOL       0.054533
    246 N4         -35.7730    16.2930   -30.5100 nh        15 MOL      -0.734933
    247 H144       -34.8670    15.8530   -28.6830 h1        15 MOL       0.080367
    248 H145       -34.3850    17.4190   -29.3910 h1        15 MOL       0.080367
    249 H146       -36.1230    15.3850   -30.6620 hn        15 MOL       0.435800
    250 N5          14.2060    15.1840    15.0140 n         15 MOL      -0.570233
    251 H147        12.2800    15.1050    14.1770 h1        15 MOL       0.075533
    252 H148        13.4520    16.1430    13.2980 h1        15 MOL       0.075533
    253 C79         13.8980    15.9400    16.0690 c         15 MOL       0.658100
    254 H149        15.1450    14.7690    14.9570 hn        15 MOL       0.314500
    255 O22         12.8190    16.5430    16.0940 o         15 MOL      -0.608767
    256 C80         14.8640    16.0790    17.2320 c3        15 MOL      -0.158733
    257 C81         14.3330    17.0990    18.2590 c3        15 MOL       0.139733
    258 H150        15.8460    16.3870    16.8400 hc        15 MOL       0.076367
    259 H151        15.0050    15.0930    17.7010 hc        15 MOL       0.076367
    260 O23         15.2730    17.2370    19.3490 os        15 MOL      -0.437600
    261 H152        13.3620    16.7560    18.6440 h1        15 MOL       0.048367
    262 H153        14.2050    18.0700    17.7610 h1        15 MOL       0.048367
    263 C82         14.7950    18.1760    20.2480 c3        15 MOL       0.119400
    264 C83         15.7890    18.3310    21.3270 c3        15 MOL       0.129067
    265 H154        13.8380    17.8440    20.6750 h1        15 MOL       0.042367
    266 H155        14.6590    19.1430    19.7460 h1        15 MOL       0.042367
    267 O24         15.2280    19.2810    22.1400 os        15 MOL      -0.426267
    268 H156        16.7490    18.6840    20.9190 h1        15 MOL       0.049033
    269 H157        15.9320    17.3800    21.8670 h1        15 MOL       0.049033
    270 C84         16.0260    19.5510    23.1560 c3        15 MOL       0.117400
    271 C85         15.3000    20.5330    23.9000 c3        15 MOL       0.120400
    272 H158        16.9860    19.9600    22.8140 h1        15 MOL       0.045700
    273 H159        16.1930    18.6570    23.7760 h1        15 MOL       0.045700
    274 O25         16.1360    20.7420    24.8960 os        15 MOL      -0.420267
    275 H160        14.3480    20.1120    24.2530 h1        15 MOL       0.047200
    276 H161        15.1280    21.4430    23.3090 h1        15 MOL       0.047200
    277 C86         15.6420    21.5840    25.8520 c3        15 MOL       0.129733
    278 C87         16.7200    21.5300    26.8180 c3        15 MOL       0.100067
    279 H162        14.7150    21.1770    26.2870 h1        15 MOL       0.055867
    280 H163        15.4770    22.6030    25.4700 h1        15 MOL       0.055867
    281 O26         16.3490    22.2760    27.9450 os        15 MOL      -0.426267
    282 H164        17.6500    21.9030    26.3900 h1        15 MOL       0.046867
    283 H165        16.8450    20.4760    27.0920 h1        15 MOL       0.046867
    284 C88         17.2940    22.0510    29.0140 c3        15 MOL       0.104067
    285 C89         16.8700    22.7680    30.3460 c3        15 MOL       0.181133
    286 H166        18.2850    22.4140    28.6970 h1        15 MOL       0.054533
    287 H167        17.3470    20.9730    29.2060 h1        15 MOL       0.054533
    288 N6          17.8960    22.4680    31.3840 nh        15 MOL      -0.734933
    289 H168        15.8880    22.4070    30.6580 h1        15 MOL       0.080367
    290 H169        16.8280    23.8490    30.1680 h1        15 MOL       0.080367
    291 H170        18.6460    23.1160    31.4330 hn        15 MOL       0.435800
    292 N7          38.4870   -17.2440   -11.3240 n         15 MOL      -0.570233
    293 H171        37.0110   -16.6040   -10.0480 h1        15 MOL       0.075533
    294 H172        38.2190   -15.3670   -10.4870 h1        15 MOL       0.075533
    295 C90         39.5910   -17.5380   -10.6310 c         15 MOL       0.658100
    296 H173        38.2560   -17.7630   -12.1390 hn        15 MOL       0.314500
    297 O27         39.8630   -16.8870    -9.6170 o         15 MOL      -0.608767
    298 C91         40.4980   -18.6820   -11.0460 c3        15 MOL      -0.158733
    299 C92         41.9430   -18.4050   -10.6030 c3        15 MOL       0.139733
    300 H174        40.4210   -18.8630   -12.1300 hc        15 MOL       0.076367
    301 H175        40.1610   -19.5910   -10.5190 hc        15 MOL       0.076367
    302 O28         42.7670   -19.5470   -10.9170 os        15 MOL      -0.437600
    303 H176        41.9540   -18.2420    -9.5150 h1        15 MOL       0.048367
    304 H177        42.3210   -17.5070   -11.1110 h1        15 MOL       0.048367
    305 C93         44.0580   -19.2970   -10.5270 c3        15 MOL       0.119400
    306 C94         44.8320   -20.5330   -10.7240 c3        15 MOL       0.129067
    307 H178        44.0870   -19.0360    -9.4600 h1        15 MOL       0.042367
    308 H179        44.4860   -18.4790   -11.1200 h1        15 MOL       0.042367
    309 O29         46.0760   -20.1790   -10.3050 os        15 MOL      -0.426267
    310 H180        44.8400   -20.8480   -11.7800 h1        15 MOL       0.049033
    311 H181        44.4170   -21.3340   -10.0910 h1        15 MOL       0.049033
    312 C95         46.8790   -21.2310   -10.2440 c3        15 MOL       0.117400
    313 C96         48.1180   -20.6570    -9.8280 c3        15 MOL       0.120400
    314 H182        46.9860   -21.7160   -11.2200 h1        15 MOL       0.045700
    315 H183        46.5270   -21.9550    -9.4990 h1        15 MOL       0.045700
    316 O30         48.8210   -21.7360    -9.7060 os        15 MOL      -0.420267
    317 H184        48.0250   -20.1290    -8.8680 h1        15 MOL       0.047200
    318 H185        48.5050   -19.9910   -10.6110 h1        15 MOL       0.047200
    319 C97         50.1500   -21.5440    -9.4900 c3        15 MOL       0.129733
    320 C98         50.4920   -22.9500    -9.4370 c3        15 MOL       0.100067
    321 H186        50.6190   -21.0430   -10.3530 h1        15 MOL       0.055867
    322 H187        50.3760   -21.0170    -8.5510 h1        15 MOL       0.055867
    323 O31         51.8450   -23.1880    -9.3790 os        15 MOL      -0.426267
    324 H188        49.9730   -23.4150    -8.5860 h1        15 MOL       0.046867
    325 H189        50.1190   -23.3940   -10.3720 h1        15 MOL       0.046867
    326 C99         51.9430   -24.5850    -9.4600 c3        15 MOL       0.104067
    327 C100        53.3050   -25.0400   -10.0140 c3        15 MOL       0.181133
    328 H190        51.2070   -24.8940   -10.1800 h1        15 MOL       0.054533
    329 H191        51.7110   -25.0500    -8.4860 h1        15 MOL       0.054533
    330 N8          53.2950   -26.5260   -10.2670 nh        15 MOL      -0.734933
    331 H192        54.1190   -24.7630    -9.3210 h1        15 MOL       0.080367
    332 H193        53.4490   -24.5270   -10.9740 h1        15 MOL       0.080367
    333 H194        53.9870   -27.0730    -9.7760 hn        15 MOL       0.435800
    334 C101        52.3700   -27.2270   -11.1420 ca        15 MOL       0.293267
    335 C102        51.3520   -26.6160   -12.0940 ca        15 MOL      -0.261533
    336 C103        50.4960   -27.3530   -12.7300 ca        15 MOL       0.031000
    337 H196        49.7890   -26.9220   -13.4010 ha        15 MOL       0.196333
    338 C104        50.5720   -28.6880   -12.5880 ca        15 MOL      -0.247533
    339 C105        51.4680   -29.2940   -11.8190 ca        15 MOL       0.004333
    340 H197        51.4830   -30.3400   -11.7620 ha        15 MOL       0.179000
    341 C106        52.3860   -28.5400   -11.0580 ca        15 MOL      -0.231000
    342 H198        53.0530   -29.0210   -10.4170 ha        15 MOL       0.156000
    343 N9          49.8040   -29.3850   -13.2210 no        15 MOL       0.328533
    344 O32         50.0270   -30.5800   -13.1840 o         15 MOL      -0.210500
    345 O33         48.8790   -28.9800   -13.8220 o         15 MOL      -0.210500
    346 N10         51.3050   -25.3610   -12.3670 no        15 MOL       0.316867
    347 O34         50.1660   -24.6670   -12.2290 o         15 MOL      -0.200500
    348 O35         52.3180   -24.8470   -12.6730 o         15 MOL      -0.200500
    349 C107       -36.5050    17.3770   -31.0460 ca        15 MOL       0.293267
    350 C108       -36.1080    18.8550   -31.1650 ca        15 MOL      -0.261533
    351 C109       -36.9750    19.7170   -31.6240 ca        15 MOL       0.031000
    352 H199       -36.7210    20.7470   -31.7300 ha        15 MOL       0.196333
    353 C110       -38.1870    19.2780   -32.0180 ca        15 MOL      -0.247533
    354 C111       -38.5670    18.0150   -31.9730 ca        15 MOL       0.004333
    355 H200       -39.5280    17.7450   -32.3080 ha        15 MOL       0.179000
    356 C112       -37.7070    17.0390   -31.4700 ca        15 MOL      -0.231000
    357 H201       -38.0280    16.0490   -31.4090 ha        15 MOL       0.156000
    358 N11        -38.9820    20.0900   -32.4680 no        15 MOL       0.328533
    359 O36        -40.0910    19.6310   -32.8910 o         15 MOL      -0.210500
    360 O37        -38.7760    21.2440   -32.5130 o         15 MOL      -0.210500
    361 N12        -34.9350    19.3850   -30.9120 no        15 MOL       0.316867
    362 O38        -34.7840    20.6720   -30.9100 o         15 MOL      -0.200500
    363 O39        -33.9870    18.7050   -30.8340 o         15 MOL      -0.200500
    364 C113        17.9510    21.3500    32.2960 ca        15 MOL       0.293267
    365 C114        16.8800    20.3040    32.6670 ca        15 MOL      -0.261533
    366 C115        17.1410    19.3950    33.5680 ca        15 MOL       0.031000
    367 H202        16.4140    18.6600    33.8310 ha        15 MOL       0.196333
    368 C116        18.3710    19.3560    34.1170 ca        15 MOL      -0.247533
    369 C117        19.3280    20.2190    33.8350 ca        15 MOL       0.004333
    370 H203        20.2660    20.1230    34.2930 ha        15 MOL       0.179000
    371 C118        19.1070    21.2540    32.9180 ca        15 MOL      -0.231000
    372 H204        19.8670    21.9360    32.7170 ha        15 MOL       0.156000
    373 N13         18.6410    18.4520    34.8920 no        15 MOL       0.328533
    374 O40         19.8510    18.3670    35.2570 o         15 MOL      -0.210500
    375 O41         17.8620    17.6650    35.2820 o         15 MOL      -0.210500
    376 N14         15.6960    20.1900    32.1610 no        15 MOL       0.316867
    377 O42         14.7640    19.5620    32.8010 o         15 MOL      -0.200500
    378 O43         15.5160    20.5110    31.0510 o         15 MOL      -0.200500
@<TRIPOS>BOND
     1     1    10 1   
     2     1    13 1   
     3     1    91 1   
     4     2    11 1   
     5     2    12 1   
     6     2    92 1   
     7     3    14 1   
     8     3    15 1   
     9     3    97 1   
    10     4     5 ar  
    11     4     9 ar  
    12     4    15 1   
    13     5     6 ar  
    14     5    88 1   
    15     6     7 ar  
    16     6    11 1   
    17     7     8 ar  
    18     7    89 1   
    19     8     9 ar  
    20     8    10 1   
    21     9    90 1   
    22    10    73 2   
    23    11    74 2   
    24    12    35 1   
    25    12    93 1   
    26    12    94 1   
    27    13    54 1   
    28    13    95 1   
    29    13    96 1   
    30    14    16 1   
    31    14    98 1   
    32    14    99 1   
    33    15    75 2   
    34    16    17 1   
    35    16   100 1   
    36    16   101 1   
    37    17    18 1   
    38    17   102 1   
    39    17   103 1   
    40    18    19 1   
    41    18   104 1   
    42    18   105 1   
    43    19    20 1   
    44    19   106 1   
    45    19   107 1   
    46    20    21 1   
    47    20   108 1   
    48    20   109 1   
    49    21    22 1   
    50    21   110 1   
    51    21   111 1   
    52    22    23 1   
    53    22   112 1   
    54    22   113 1   
    55    23    24 1   
    56    23   114 1   
    57    23   115 1   
    58    24    25 1   
    59    24   116 1   
    60    24   117 1   
    61    25    26 1   
    62    25   118 1   
    63    25   119 1   
    64    26    76 1   
    65    26   120 1   
    66    26   121 1   
    67    27    28 1   
    68    27    76 1   
    69    27   122 1   
    70    27   123 1   
    71    28    77 1   
    72    28   124 1   
    73    28   125 1   
    74    29    30 1   
    75    29    77 1   
    76    29   126 1   
    77    29   127 1   
    78    30    78 1   
    79    30   128 1   
    80    30   129 1   
    81    31    32 1   
    82    31    78 1   
    83    31   130 1   
    84    31   131 1   
    85    32    79 1   
    86    32   132 1   
    87    32   133 1   
    88    33    34 1   
    89    33    79 1   
    90    33   134 1   
    91    33   135 1   
    92    34   208 1   
    93    34   209 1   
    94    34   210 1   
    95    35    36 1   
    96    35   136 1   
    97    35   137 1   
    98    36    37 1   
    99    36   138 1   
   100    36   139 1   
   101    37    38 1   
   102    37   140 1   
   103    37   141 1   
   104    38    39 1   
   105    38   142 1   
   106    38   143 1   
   107    39    40 1   
   108    39   144 1   
   109    39   145 1   
   110    40    41 1   
   111    40   146 1   
   112    40   147 1   
   113    41    42 1   
   114    41   148 1   
   115    41   149 1   
   116    42    43 1   
   117    42   150 1   
   118    42   151 1   
   119    43    44 1   
   120    43   152 1   
   121    43   153 1   
   122    44    45 1   
   123    44   154 1   
   124    44   155 1   
   125    45    80 1   
   126    45   156 1   
   127    45   157 1   
   128    46    47 1   
   129    46    80 1   
   130    46   158 1   
   131    46   159 1   
   132    47    81 1   
   133    47   160 1   
   134    47   161 1   
   135    48    49 1   
   136    48    81 1   
   137    48   162 1   
   138    48   163 1   
   139    49    82 1   
   140    49   164 1   
   141    49   165 1   
   142    50    51 1   
   143    50    82 1   
   144    50   166 1   
   145    50   167 1   
   146    51    83 1   
   147    51   168 1   
   148    51   169 1   
   149    52    53 1   
   150    52    83 1   
   151    52   170 1   
   152    52   171 1   
   153    53   250 1   
   154    53   251 1   
   155    53   252 1   
   156    54    55 1   
   157    54   172 1   
   158    54   173 1   
   159    55    56 1   
   160    55   174 1   
   161    55   175 1   
   162    56    57 1   
   163    56   176 1   
   164    56   177 1   
   165    57    58 1   
   166    57   178 1   
   167    57   179 1   
   168    58    59 1   
   169    58   180 1   
   170    58   181 1   
   171    59    60 1   
   172    59   182 1   
   173    59   183 1   
   174    60    61 1   
   175    60   184 1   
   176    60   185 1   
   177    61    62 1   
   178    61   186 1   
   179    61   187 1   
   180    62    63 1   
   181    62   188 1   
   182    62   189 1   
   183    63    64 1   
   184    63   190 1   
   185    63   191 1   
   186    64    84 1   
   187    64   192 1   
   188    64   193 1   
   189    65    66 1   
   190    65    84 1   
   191    65   194 1   
   192    65   195 1   
   193    66    85 1   
   194    66   196 1   
   195    66   197 1   
   196    67    68 1   
   197    67    85 1   
   198    67   198 1   
   199    67   199 1   
   200    68    86 1   
   201    68   200 1   
   202    68   201 1   
   203    69    70 1   
   204    69    86 1   
   205    69   202 1   
   206    69   203 1   
   207    70    87 1   
   208    70   204 1   
   209    70   205 1   
   210    71    72 1   
   211    71    87 1   
   212    71   206 1   
   213    71   207 1   
   214    72   292 1   
   215    72   293 1   
   216    72   294 1   
   217   208   211 1   
   218   208   212 1   
   219   211   213 2   
   220   211   214 1   
   221   214   215 1   
   222   214   216 1   
   223   214   217 1   
   224   215   218 1   
   225   215   219 1   
   226   215   220 1   
   227   218   221 1   
   228   221   222 1   
   229   221   223 1   
   230   221   224 1   
   231   222   225 1   
   232   222   226 1   
   233   222   227 1   
   234   225   228 1   
   235   228   229 1   
   236   228   230 1   
   237   228   231 1   
   238   229   232 1   
   239   229   233 1   
   240   229   234 1   
   241   232   235 1   
   242   235   236 1   
   243   235   237 1   
   244   235   238 1   
   245   236   239 1   
   246   236   240 1   
   247   236   241 1   
   248   239   242 1   
   249   242   243 1   
   250   242   244 1   
   251   242   245 1   
   252   243   246 1   
   253   243   247 1   
   254   243   248 1   
   255   246   249 1   
   256   246   349 1   
   257   250   253 1   
   258   250   254 1   
   259   253   255 2   
   260   253   256 1   
   261   256   257 1   
   262   256   258 1   
   263   256   259 1   
   264   257   260 1   
   265   257   261 1   
   266   257   262 1   
   267   260   263 1   
   268   263   264 1   
   269   263   265 1   
   270   263   266 1   
   271   264   267 1   
   272   264   268 1   
   273   264   269 1   
   274   267   270 1   
   275   270   271 1   
   276   270   272 1   
   277   270   273 1   
   278   271   274 1   
   279   271   275 1   
   280   271   276 1   
   281   274   277 1   
   282   277   278 1   
   283   277   279 1   
   284   277   280 1   
   285   278   281 1   
   286   278   282 1   
   287   278   283 1   
   288   281   284 1   
   289   284   285 1   
   290   284   286 1   
   291   284   287 1   
   292   285   288 1   
   293   285   289 1   
   294   285   290 1   
   295   288   291 1   
   296   288   364 1   
   297   292   295 1   
   298   292   296 1   
   299   295   297 2   
   300   295   298 1   
   301   298   299 1   
   302   298   300 1   
   303   298   301 1   
   304   299   302 1   
   305   299   303 1   
   306   299   304 1   
   307   302   305 1   
   308   305   306 1   
   309   305   307 1   
   310   305   308 1   
   311   306   309 1   
   312   306   310 1   
   313   306   311 1   
   314   309   312 1   
   315   312   313 1   
   316   312   314 1   
   317   312   315 1   
   318   313   316 1   
   319   313   317 1   
   320   313   318 1   
   321   316   319 1   
   322   319   320 1   
   323   319   321 1   
   324   319   322 1   
   325   320   323 1   
   326   320   324 1   
   327   320   325 1   
   328   323   326 1   
   329   326   327 1   
   330   326   328 1   
   331   326   329 1   
   332   327   330 1   
   333   327   331 1   
   334   327   332 1   
   335   330   333 1   
   336   330   334 1   
   337   334   335 ar  
   338   334   341 ar  
   339   335   336 ar  
   340   335   346 1   
   341   336   337 1   
   342   336   338 ar  
   343   338   339 ar  
   344   338   343 1   
   345   339   340 1   
   346   339   341 ar  
   347   341   342 1   
   348   343   344 1   
   349   343   345 1   
   350   346   347 1   
   351   346   348 1   
   352   349   350 ar  
   353   349   356 ar  
   354   350   351 ar  
   355   350   361 1   
   356   351   352 1   
   357   351   353 ar  
   358   353   354 ar  
   359   353   358 1   
   360   354   355 1   
   361   354   356 ar  
   362   356   357 1   
   363   358   359 1   
   364   358   360 1   
   365   361   362 1   
   366   361   363 1   
   367   364   365 ar  
   368   364   371 ar  
   369   365   366 ar  
   370   365   376 1   
   371   366   367 1   
   372   366   368 ar  
   373   368   369 ar  
   374   368   373 1   
   375   369   370 1   
   376   369   371 ar  
   377   371   372 1   
   378   373   374 1   
   379   373   375 1   
   380   376   377 1   
   381   376   378 1   
@<TRIPOS>SUBSTRUCTURE
     1 MOL         1 TEMP              0 ****  ****    0 ROOT
