@<TRIPOS>MOLECULE
MOL
  378   381     1     0     0
SMALL
bcc


@<TRIPOS>ATOM
      1 N           14.9260     0.3300   -16.5500 n         16 MOL      -0.563567
      2 N1          11.0590     4.3510   -13.2920 n         16 MOL      -0.563567
      3 N2           8.4470     3.4470   -17.5900 n         16 MOL      -0.563567
      4 C           10.4840     2.2660   -16.9770 ca        16 MOL      -0.153933
      5 C1          10.5580     2.7950   -15.6800 ca        16 MOL      -0.041000
      6 C2          11.7340     2.6920   -14.9180 ca        16 MOL      -0.153933
      7 C3          12.8360     2.0220   -15.4670 ca        16 MOL      -0.041000
      8 C4          12.7880     1.4710   -16.7590 ca        16 MOL      -0.153933
      9 C5          11.6040     1.6040   -17.4960 ca        16 MOL      -0.041000
     10 C6          13.9800     0.7810   -17.3820 c         16 MOL       0.669367
     11 C7          11.8230     3.2790   -13.5280 c         16 MOL       0.669367
     12 C8          10.9600     4.9810   -11.9770 c3        16 MOL       0.084333
     13 C9          16.0890    -0.3310   -17.0510 c3        16 MOL       0.084333
     14 C10          7.2580     3.6240   -18.3660 c3        16 MOL       0.084333
     15 C11          9.2350     2.3870   -17.8170 c         16 MOL       0.669367
     16 C12         17.0730    -0.5750   -15.8990 c3        16 MOL      -0.104067
     17 C13         18.3250    -1.2910   -16.4190 c3        16 MOL      -0.077400
     18 C14         19.2780    -1.5110   -15.2360 c3        16 MOL      -0.078400
     19 C15         20.5520    -2.2330   -15.7000 c3        16 MOL      -0.079400
     20 C16         21.4670    -2.4260   -14.4840 c3        16 MOL      -0.078400
     21 C17         22.7500    -3.1510   -14.9050 c3        16 MOL      -0.079400
     22 C18         23.6390    -3.3270   -13.6680 c3        16 MOL      -0.079400
     23 C19         24.9320    -4.0590   -14.0560 c3        16 MOL      -0.078400
     24 C20         25.8090    -4.2270   -12.8080 c3        16 MOL      -0.078400
     25 C21         27.0980    -4.9660   -13.1920 c3        16 MOL      -0.084400
     26 C22         27.9780    -5.1380   -11.9400 c3        16 MOL       0.133400
     27 C23         29.9800    -5.9920   -11.1290 c3        16 MOL       0.128400
     28 C24         31.2610    -6.7650   -11.5070 c3        16 MOL       0.130400
     29 C25         33.2390    -7.6830   -10.7530 c3        16 MOL       0.130400
     30 C26         34.1690    -7.9240    -9.5380 c3        16 MOL       0.129400
     31 C27         36.1540    -8.9160    -8.8390 c3        16 MOL       0.130400
     32 C28         37.3540    -9.7520    -9.2840 c3        16 MOL       0.128400
     33 C29         39.2570   -10.7930    -8.5940 c3        16 MOL       0.105400
     34 C30         40.1580   -11.0900    -7.3950 c3        16 MOL       0.084000
     35 C31         12.3040     5.3620   -11.3330 c3        16 MOL      -0.104067
     36 C32         11.9430     5.9410    -9.9700 c3        16 MOL      -0.077400
     37 C33         13.1780     6.3450    -9.1780 c3        16 MOL      -0.078400
     38 C34         12.6620     6.8750    -7.8390 c3        16 MOL      -0.079400
     39 C35         13.8020     7.2980    -6.9180 c3        16 MOL      -0.078400
     40 C36         13.1520     7.7800    -5.6200 c3        16 MOL      -0.079400
     41 C37         14.2050     8.2120    -4.6040 c3        16 MOL      -0.079400
     42 C38         13.4570     8.6590    -3.3420 c3        16 MOL      -0.078400
     43 C39         14.4370     9.0980    -2.2530 c3        16 MOL      -0.078400
     44 C40         13.6160     9.5170    -1.0270 c3        16 MOL      -0.084400
     45 C41         14.5460     9.9600     0.1090 c3        16 MOL       0.133400
     46 C42         14.5520    10.7300     2.2780 c3        16 MOL       0.128400
     47 C43         13.6760    11.1090     3.4040 c3        16 MOL       0.130400
     48 C44         13.9070    11.8560     5.4870 c3        16 MOL       0.130400
     49 C45         15.0020    12.1850     6.3740 c3        16 MOL       0.129400
     50 C46         15.5030    12.9040     8.4380 c3        16 MOL       0.130400
     51 C47         14.9110    13.3430     9.7300 c3        16 MOL       0.128400
     52 C48         15.5200    14.0260    11.8510 c3        16 MOL       0.105400
     53 C49         16.7530    14.2710    12.7440 c3        16 MOL       0.084000
     54 C50          6.3750     4.6890   -17.7270 c3        16 MOL      -0.104067
     55 C51          5.1170     4.8660   -18.5650 c3        16 MOL      -0.077400
     56 C52          4.2550     5.9310   -17.9010 c3        16 MOL      -0.078400
     57 C53          2.9820     6.1390   -18.7100 c3        16 MOL      -0.079400
     58 C54          2.1520     7.2040   -18.0120 c3        16 MOL      -0.078400
     59 C55          0.8710     7.4380   -18.7960 c3        16 MOL      -0.079400
     60 C56          0.0630     8.5040   -18.0740 c3        16 MOL      -0.079400
     61 C57         -1.2250     8.7600   -18.8420 c3        16 MOL      -0.078400
     62 C58         -2.0200     9.8280   -18.1070 c3        16 MOL      -0.078400
     63 C59         -3.3080    10.0940   -18.8700 c3        16 MOL      -0.084400
     64 C60         -4.1010    11.1610   -18.1320 c3        16 MOL       0.133400
     65 C61         -6.0330    12.3620   -18.2020 c3        16 MOL       0.128400
     66 C62         -7.2480    12.5840   -18.9810 c3        16 MOL       0.130400
     67 C63         -9.0200    13.8670   -18.8110 c3        16 MOL       0.130400
     68 C64         -9.5180    14.8310   -17.9080 c3        16 MOL       0.129400
     69 C65        -11.3440    16.0570   -17.8290 c3        16 MOL       0.130400
     70 C66        -12.4740    16.1960   -18.6940 c3        16 MOL       0.128400
     71 C67        -14.3610    17.3430   -18.8740 c3        16 MOL       0.105400
     72 C68        -15.1320    18.3630   -18.1320 c3        16 MOL       0.084000
     73 O           14.0640     0.6340   -18.6030 o         16 MOL      -0.595767
     74 O1          12.5760     2.8000   -12.6770 o         16 MOL      -0.595767
     75 O2           8.9790     1.5570   -18.6920 o         16 MOL      -0.595767
     76 O3          29.1730    -5.8320   -12.2920 os        16 MOL      -0.427600
     77 O4          32.0860    -6.9450   -10.3560 os        16 MOL      -0.430600
     78 O5          35.3040    -8.6760    -9.9610 os        16 MOL      -0.430600
     79 O6          38.1760    -9.9950    -8.1700 os        16 MOL      -0.425600
     80 O7          13.7440    10.3380     1.2330 os        16 MOL      -0.427600
     81 O8          14.5560    11.4750     4.3820 os        16 MOL      -0.430600
     82 O9          14.4520    12.5880     7.5370 os        16 MOL      -0.430600
     83 O10         15.9850    13.6230    10.5830 os        16 MOL      -0.425600
     84 O11         -5.3030    11.4090   -18.8510 os        16 MOL      -0.427600
     85 O12         -7.8890    13.5330   -18.2520 os        16 MOL      -0.430600
     86 O13        -10.6480    15.1430   -18.5000 os        16 MOL      -0.430600
     87 O14        -13.2420    17.1020   -18.1030 os        16 MOL      -0.425600
     88 H            9.7340     3.2680   -15.2780 ha        16 MOL       0.160667
     89 H1          13.7010     1.9310   -14.9110 ha        16 MOL       0.160667
     90 H2          11.5560     1.2040   -18.4460 ha        16 MOL       0.160667
     91 H3          14.7700     0.4260   -15.5830 hn        16 MOL       0.307833
     92 H4          10.5400     4.7120   -14.0470 hn        16 MOL       0.307833
     93 H5          10.4780     4.2610   -11.2990 h1        16 MOL       0.064367
     94 H6          10.3320     5.8800   -12.0540 h1        16 MOL       0.064367
     95 H7          16.5500     0.2900   -17.8330 h1        16 MOL       0.064367
     96 H8          15.7900    -1.2870   -17.5020 h1        16 MOL       0.064367
     97 H9           8.7130     4.0820   -16.8860 hn        16 MOL       0.307833
     98 H10          6.7250     2.6640   -18.4310 h1        16 MOL       0.064367
     99 H11          7.5390     3.9320   -19.3820 h1        16 MOL       0.064367
    100 H12         16.5920    -1.1990   -15.1330 hc        16 MOL       0.044700
    101 H13         17.3640     0.3890   -15.4570 hc        16 MOL       0.044700
    102 H14         18.8160    -0.6720   -17.1840 hc        16 MOL       0.043867
    103 H15         18.0410    -2.2600   -16.8550 hc        16 MOL       0.043867
    104 H16         18.7740    -2.1210   -14.4730 hc        16 MOL       0.040533
    105 H17         19.5490    -0.5370   -14.8040 hc        16 MOL       0.040533
    106 H18         21.0680    -1.6280   -16.4590 hc        16 MOL       0.041033
    107 H19         20.2890    -3.2130   -16.1240 hc        16 MOL       0.041033
    108 H20         20.9430    -3.0250   -13.7250 hc        16 MOL       0.039867
    109 H21         21.7240    -1.4440   -14.0620 hc        16 MOL       0.039867
    110 H22         23.2810    -2.5570   -15.6620 hc        16 MOL       0.040533
    111 H23         22.4970    -4.1370   -15.3210 hc        16 MOL       0.040533
    112 H24         23.0990    -3.9150   -12.9120 hc        16 MOL       0.039700
    113 H25         23.8860    -2.3380   -13.2540 hc        16 MOL       0.039700
    114 H26         25.4760    -3.4740   -14.8110 hc        16 MOL       0.041867
    115 H27         24.6850    -5.0480   -14.4660 hc        16 MOL       0.041867
    116 H28         25.2640    -4.8110   -12.0530 hc        16 MOL       0.040200
    117 H29         26.0590    -3.2390   -12.3990 hc        16 MOL       0.040200
    118 H30         27.6420    -4.3840   -13.9500 hc        16 MOL       0.055200
    119 H31         26.8420    -5.9540   -13.6010 hc        16 MOL       0.055200
    120 H32         27.4290    -5.7170   -11.1840 h1        16 MOL       0.027700
    121 H33         28.2340    -4.1490   -11.5320 h1        16 MOL       0.027700
    122 H34         29.4180    -6.5580   -10.3700 h1        16 MOL       0.039533
    123 H35         30.2450    -5.0010   -10.7270 h1        16 MOL       0.039533
    124 H36         31.8190    -6.2020   -12.2700 h1        16 MOL       0.042200
    125 H37         30.9840    -7.7510   -11.9100 h1        16 MOL       0.042200
    126 H38         33.7820    -7.1190   -11.5280 h1        16 MOL       0.042200
    127 H39         32.9180    -8.6530   -11.1650 h1        16 MOL       0.042200
    128 H40         33.6260    -8.4900    -8.7650 h1        16 MOL       0.042367
    129 H41         34.5000    -6.9590    -9.1220 h1        16 MOL       0.042367
    130 H42         35.5970    -9.4680    -8.0680 h1        16 MOL       0.042700
    131 H43         36.5040    -7.9590    -8.4250 h1        16 MOL       0.042700
    132 H44         37.9300    -9.2140   -10.0500 h1        16 MOL       0.042533
    133 H45         37.0070   -10.7120    -9.6900 h1        16 MOL       0.042533
    134 H46         39.8280   -10.2580    -9.3680 h1        16 MOL       0.033200
    135 H47         38.8720   -11.7380    -9.0060 h1        16 MOL       0.033200
    136 H48         12.8350     6.1070   -11.9440 hc        16 MOL       0.044700
    137 H49         12.9320     4.4690   -11.2010 hc        16 MOL       0.044700
    138 H50         11.3950     5.1790    -9.4000 hc        16 MOL       0.043867
    139 H51         11.3000     6.8210   -10.1110 hc        16 MOL       0.043867
    140 H52         13.7380     7.1210    -9.7140 hc        16 MOL       0.040533
    141 H53         13.8190     5.4680    -9.0130 hc        16 MOL       0.040533
    142 H54         12.0860     6.0800    -7.3440 hc        16 MOL       0.041033
    143 H55         12.0060     7.7380    -8.0220 hc        16 MOL       0.041033
    144 H56         14.3850     8.1090    -7.3780 hc        16 MOL       0.039867
    145 H57         14.4560     6.4390    -6.7120 hc        16 MOL       0.039867
    146 H58         12.5600     6.9580    -5.1920 hc        16 MOL       0.040533
    147 H59         12.4890     8.6290    -5.8410 hc        16 MOL       0.040533
    148 H60         14.8000     9.0440    -5.0090 hc        16 MOL       0.039700
    149 H61         14.8640     7.3640    -4.3700 hc        16 MOL       0.039700
    150 H62         12.8560     7.8180    -2.9650 hc        16 MOL       0.041867
    151 H63         12.7920     9.4980    -3.5920 hc        16 MOL       0.041867
    152 H64         15.0390     9.9460    -2.6100 hc        16 MOL       0.040200
    153 H65         15.0980     8.2600    -1.9890 hc        16 MOL       0.040200
    154 H66         13.0110     8.6630    -0.6890 hc        16 MOL       0.055200
    155 H67         12.9520    10.3490    -1.3030 hc        16 MOL       0.055200
    156 H68         15.1530    10.8170    -0.2210 h1        16 MOL       0.027700
    157 H69         15.2070     9.1260     0.3890 h1        16 MOL       0.027700
    158 H70         15.1640    11.5940     1.9830 h1        16 MOL       0.039533
    159 H71         15.2050     9.9000     2.5850 h1        16 MOL       0.039533
    160 H72         13.0660    10.2510     3.7270 h1        16 MOL       0.042200
    161 H73         13.0270    11.9530     3.1240 h1        16 MOL       0.042200
    162 H74         13.3020    11.0320     5.8950 h1        16 MOL       0.042200
    163 H75         13.2760    12.7370     5.2910 h1        16 MOL       0.042200
    164 H76         15.6070    12.9910     5.9350 h1        16 MOL       0.042367
    165 H77         15.6270    11.2940     6.5330 h1        16 MOL       0.042367
    166 H78         16.1240    13.7130     8.0250 h1        16 MOL       0.042700
    167 H79         16.1260    12.0130     8.6100 h1        16 MOL       0.042700
    168 H80         14.2980    12.5370    10.1540 h1        16 MOL       0.042533
    169 H81         14.2980    14.2420     9.5830 h1        16 MOL       0.042533
    170 H82         14.8980    13.2280    12.2840 h1        16 MOL       0.033200
    171 H83         14.9250    14.9490    11.7540 h1        16 MOL       0.033200
    172 H84          6.9190     5.6430   -17.6820 hc        16 MOL       0.044700
    173 H85          6.0940     4.3760   -16.7120 hc        16 MOL       0.044700
    174 H86          4.5650     3.9170   -18.6120 hc        16 MOL       0.043867
    175 H87          5.3900     5.1850   -19.5810 hc        16 MOL       0.043867
    176 H88          4.8150     6.8760   -17.8510 hc        16 MOL       0.040533
    177 H89          3.9930     5.6060   -16.8840 hc        16 MOL       0.040533
    178 H90          2.4140     5.1990   -18.7600 hc        16 MOL       0.041033
    179 H91          3.2360     6.4720   -19.7270 hc        16 MOL       0.041033
    180 H92          2.7250     8.1410   -17.9590 hc        16 MOL       0.039867
    181 H93          1.9030     6.8680   -16.9960 hc        16 MOL       0.039867
    182 H94          0.2910     6.5050   -18.8500 hc        16 MOL       0.040533
    183 H95          1.1150     7.7790   -19.8120 hc        16 MOL       0.040533
    184 H96          0.6490     9.4330   -18.0190 hc        16 MOL       0.039700
    185 H97         -0.1750     8.1590   -17.0580 hc        16 MOL       0.039700
    186 H98         -1.8140     7.8340   -18.8980 hc        16 MOL       0.041867
    187 H99         -0.9880     9.1090   -19.8570 hc        16 MOL       0.041867
    188 H100        -1.4300    10.7540   -18.0490 hc        16 MOL       0.040200
    189 H101        -2.2580     9.4790   -17.0920 hc        16 MOL       0.040200
    190 H102        -3.9000     9.1690   -18.9290 hc        16 MOL       0.055200
    191 H103        -3.0700    10.4440   -19.8840 hc        16 MOL       0.055200
    192 H104        -3.5060    12.0860   -18.0710 h1        16 MOL       0.027700
    193 H105        -4.3390    10.8080   -17.1170 h1        16 MOL       0.027700
    194 H106        -5.4660    13.3010   -18.1350 h1        16 MOL       0.039533
    195 H107        -6.3030    12.0180   -17.1940 h1        16 MOL       0.039533
    196 H108        -7.8450    11.6610   -19.0460 h1        16 MOL       0.042200
    197 H109        -7.0030    12.9540   -19.9900 h1        16 MOL       0.042200
    198 H110        -9.7090    13.0130   -18.8760 h1        16 MOL       0.042200
    199 H111        -8.8660    14.3130   -19.8030 h1        16 MOL       0.042200
    200 H112        -8.8370    15.6920   -17.8410 h1        16 MOL       0.042367
    201 H113        -9.6820    14.3870   -16.9160 h1        16 MOL       0.042367
    202 H114       -10.7970    17.0080   -17.7440 h1        16 MOL       0.042700
    203 H115       -11.6490    15.6920   -16.8360 h1        16 MOL       0.042700
    204 H116       -12.9980    15.2350   -18.7890 h1        16 MOL       0.042533
    205 H117       -12.1430    16.5440   -19.6830 h1        16 MOL       0.042533
    206 H118       -14.9560    16.4240   -18.9950 h1        16 MOL       0.033200
    207 H119       -14.0660    17.7340   -19.8610 h1        16 MOL       0.033200
    208 H120        17.2680    15.0740    12.1950 h1        16 MOL       0.076200
    209 H121        16.7290    13.2330    12.3610 h1        16 MOL       0.076200
    210 N3          41.2700   -11.9310    -7.8270 n         16 MOL      -0.570900
    211 C69         41.8140   -12.7750    -6.9640 c         16 MOL       0.655100
    212 H122        41.7170   -11.7710    -8.7410 hn        16 MOL       0.306500
    213 O15         41.3290   -12.9000    -5.8350 o         16 MOL      -0.595100
    214 C70         43.0110   -13.5670    -7.3480 c3        16 MOL      -0.161400
    215 C71         44.0270   -13.4250    -6.2220 c3        16 MOL       0.138400
    216 H123        43.4130   -13.2220    -8.3110 hc        16 MOL       0.083867
    217 H124        42.7400   -14.6330    -7.4060 hc        16 MOL       0.083867
    218 O16         45.2010   -14.1960    -6.5160 os        16 MOL      -0.429600
    219 H125        43.5710   -13.7870    -5.2900 h1        16 MOL       0.037867
    220 H126        44.2940   -12.3660    -6.1080 h1        16 MOL       0.037867
    221 C72         46.1020   -14.0500    -5.4440 c3        16 MOL       0.128400
    222 C73         47.3680   -14.8920    -5.7540 c3        16 MOL       0.129400
    223 H127        46.3640   -12.9870    -5.3310 h1        16 MOL       0.042867
    224 H128        45.6290   -14.4140    -4.5180 h1        16 MOL       0.042867
    225 O17         48.3280   -14.8050    -4.6970 os        16 MOL      -0.428933
    226 H129        47.0750   -15.9460    -5.8790 h1        16 MOL       0.043033
    227 H130        47.8270   -14.5310    -6.6870 h1        16 MOL       0.043033
    228 C74         49.4370   -15.6300    -5.0690 c3        16 MOL       0.120067
    229 C75         50.5330   -15.6280    -3.9680 c3        16 MOL       0.128067
    230 H131        49.8650   -15.2540    -6.0110 h1        16 MOL       0.042367
    231 H132        49.0790   -16.6600    -5.2180 h1        16 MOL       0.042367
    232 O18         51.6040   -16.4710    -4.3840 os        16 MOL      -0.427267
    233 H133        50.9100   -14.6050    -3.8120 h1        16 MOL       0.050533
    234 H134        50.1130   -16.0130    -3.0260 h1        16 MOL       0.050533
    235 C76         52.6010   -16.4900    -3.3690 c3        16 MOL       0.116733
    236 C77         53.7490   -17.3970    -3.8080 c3        16 MOL       0.129400
    237 H135        52.1580   -16.8670    -2.4360 h1        16 MOL       0.041533
    238 H136        52.9820   -15.4740    -3.2050 h1        16 MOL       0.041533
    239 O19         54.7550   -17.4200    -2.7790 os        16 MOL      -0.436933
    240 H137        53.3540   -18.4150    -3.9570 h1        16 MOL       0.052200
    241 H138        54.1890   -17.0290    -4.7500 h1        16 MOL       0.052200
    242 C78         55.7690   -18.3760    -3.1000 c3        16 MOL       0.099067
    243 C79         56.8010   -18.4680    -1.9080 c3        16 MOL       0.196800
    244 H139        56.2800   -18.0920    -4.0340 h1        16 MOL       0.054033
    245 H140        55.2850   -19.3560    -3.2270 h1        16 MOL       0.054033
    246 N4          57.8570   -19.5220    -2.1020 nh        16 MOL      -0.728600
    247 H141        56.2370   -18.7130    -0.9990 h1        16 MOL       0.079033
    248 H142        57.2820   -17.4890    -1.7800 h1        16 MOL       0.079033
    249 H143        58.7970   -19.1810    -2.1940 hn        16 MOL       0.451467
    250 N5          16.1330    14.6440    13.9750 n         16 MOL      -0.570900
    251 C80         16.4960    15.7780    14.5680 c         16 MOL       0.655100
    252 H144        15.4380    14.0570    14.3800 hn        16 MOL       0.306500
    253 O20         17.3540    16.4890    14.0370 o         16 MOL      -0.595100
    254 C81         15.8870    16.1890    15.8690 c3        16 MOL      -0.161400
    255 C82         17.0400    16.3400    16.8700 c3        16 MOL       0.138400
    256 H145        15.1570    15.4430    16.2120 hc        16 MOL       0.083867
    257 H146        15.4220    17.1820    15.7650 hc        16 MOL       0.083867
    258 O21         16.5590    16.7580    18.1650 os        16 MOL      -0.429600
    259 H147        17.7440    17.0900    16.4800 h1        16 MOL       0.037867
    260 H148        17.5580    15.3750    16.9660 h1        16 MOL       0.037867
    261 C83         17.6530    16.8670    18.9830 c3        16 MOL       0.128400
    262 C84         17.1820    17.3030    20.3180 c3        16 MOL       0.129400
    263 H149        18.3460    17.6170    18.5790 h1        16 MOL       0.042867
    264 H150        18.1620    15.8970    19.0600 h1        16 MOL       0.042867
    265 O22         18.3250    17.4210    21.0820 os        16 MOL      -0.428933
    266 H151        16.4940    16.5600    20.7530 h1        16 MOL       0.043033
    267 H152        16.6780    18.2790    20.2320 h1        16 MOL       0.043033
    268 C85         18.0000    17.8840    22.2840 c3        16 MOL       0.120067
    269 C86         19.2420    18.0520    22.9730 c3        16 MOL       0.128067
    270 H153        17.3520    17.1800    22.8250 h1        16 MOL       0.042367
    271 H154        17.5020    18.8610    22.1950 h1        16 MOL       0.042367
    272 O23         18.7920    18.5610    24.1170 os        16 MOL      -0.427267
    273 H155        19.8780    18.7710    22.4360 h1        16 MOL       0.050533
    274 H156        19.7680    17.0960    23.1170 h1        16 MOL       0.050533
    275 C87         19.7630    18.9300    24.9610 c3        16 MOL       0.116733
    276 C88         18.9790    19.5030    26.0160 c3        16 MOL       0.129400
    277 H157        20.4110    19.6980    24.5140 h1        16 MOL       0.041533
    278 H158        20.3590    18.0760    25.3150 h1        16 MOL       0.041533
    279 O24         19.8770    19.9640    26.8940 os        16 MOL      -0.436933
    280 H159        18.3770    20.3260    25.6050 h1        16 MOL       0.052200
    281 H160        18.3240    18.7430    26.4640 h1        16 MOL       0.052200
    282 C89         19.2750    20.5820    27.9160 c3        16 MOL       0.099067
    283 C90         20.4070    21.1070    28.7410 c3        16 MOL       0.196800
    284 H161        18.6450    19.8870    28.4960 h1        16 MOL       0.054033
    285 H162        18.6660    21.4140    27.5350 h1        16 MOL       0.054033
    286 N6          19.7940    21.8230    29.7550 nh        16 MOL      -0.728600
    287 H163        21.0350    21.7450    28.1220 h1        16 MOL       0.079033
    288 H164        20.9800    20.2540    29.1350 h1        16 MOL       0.079033
    289 H165        19.0740    21.3380    30.2990 hn        16 MOL       0.451467
    290 N7         -16.2680    18.6710   -18.8700 n         16 MOL      -0.570900
    291 H166       -14.5280    19.2700   -17.9930 h1        16 MOL       0.076200
    292 H167       -15.4190    17.9820   -17.1430 h1        16 MOL       0.076200
    293 C91        -17.1070    19.5980   -18.4340 c         16 MOL       0.655100
    294 H168       -16.4470    18.2060   -19.7320 hn        16 MOL       0.306500
    295 O25        -16.8880    20.1820   -17.3680 o         16 MOL      -0.595100
    296 C92        -18.3100    19.9420   -19.2490 c3        16 MOL      -0.161400
    297 C93        -19.2310    20.8680   -18.4810 c3        16 MOL       0.138400
    298 H169       -18.8250    19.0170   -19.5480 hc        16 MOL       0.083867
    299 H170       -17.9730    20.4330   -20.1740 hc        16 MOL       0.083867
    300 O26        -20.3370    21.1820   -19.3310 os        16 MOL      -0.429600
    301 H171       -18.6890    21.7870   -18.2140 h1        16 MOL       0.037867
    302 H172       -19.5780    20.3660   -17.5660 h1        16 MOL       0.037867
    303 C94        -21.2040    21.9970   -18.6820 c3        16 MOL       0.128400
    304 C95        -22.2620    22.2980   -19.6370 c3        16 MOL       0.129400
    305 H173       -20.7090    22.9290   -18.3780 h1        16 MOL       0.042867
    306 H174       -21.6260    21.4910   -17.8030 h1        16 MOL       0.042867
    307 O27        -23.0960    23.0910   -18.9330 os        16 MOL      -0.428933
    308 H175       -21.8530    22.8260   -20.5130 h1        16 MOL       0.043033
    309 H176       -22.7720    21.3730   -19.9540 h1        16 MOL       0.043033
    310 C96        -24.0960    23.4580   -19.6960 c3        16 MOL       0.120067
    311 C97        -24.9270    24.1980   -18.8210 c3        16 MOL       0.128067
    312 H177       -24.6460    22.5830   -20.0740 h1        16 MOL       0.042367
    313 H178       -23.7570    24.0830   -20.5330 h1        16 MOL       0.042367
    314 O28        -25.9020    24.5140   -19.6590 os        16 MOL      -0.427267
    315 H179       -25.2790    23.5510   -18.0050 h1        16 MOL       0.050533
    316 H180       -24.4140    25.0860   -18.4240 h1        16 MOL       0.050533
    317 C98        -26.9390    25.1130   -19.0770 c3        16 MOL       0.116733
    318 C99        -27.7980    25.2810   -20.1850 c3        16 MOL       0.129400
    319 H181       -27.4150    24.4610   -18.3340 h1        16 MOL       0.041533
    320 H182       -26.6760    26.0800   -18.6260 h1        16 MOL       0.041533
    321 O29        -28.8400    25.7630   -19.5850 os        16 MOL      -0.436933
    322 H183       -27.3520    25.9730   -20.9140 h1        16 MOL       0.052200
    323 H184       -28.0350    24.3260   -20.6540 h1        16 MOL       0.052200
    324 C100       -29.8310    26.1270   -20.4240 c3        16 MOL       0.099067
    325 C101       -30.9170    26.4400   -19.4840 c3        16 MOL       0.196800
    326 H185       -29.5430    27.0040   -21.0280 h1        16 MOL       0.054033
    327 H186       -30.1220    25.2830   -21.0770 h1        16 MOL       0.054033
    328 N8         -32.0420    26.8100   -20.2370 nh        16 MOL      -0.728600
    329 H187       -31.1350    25.5240   -18.9220 h1        16 MOL       0.079033
    330 H188       -30.6150    27.2090   -18.7940 h1        16 MOL       0.079033
    331 H189       -32.3260    26.1660   -20.9310 hn        16 MOL       0.451467
    332 C102        57.6800   -20.9670    -2.0900 ca        16 MOL       0.298600
    333 C103        56.3910   -21.7840    -1.9510 ca        16 MOL      -0.278200
    334 C104        56.4050   -23.0770    -2.0680 ca        16 MOL       0.036000
    335 H190        55.5070   -23.6490    -1.9780 ha        16 MOL       0.199333
    336 C105        57.5780   -23.6900    -2.2450 ca        16 MOL      -0.253200
    337 C106        58.7350   -23.0550    -2.3390 ca        16 MOL       0.007000
    338 H191        59.6170   -23.6010    -2.4700 ha        16 MOL       0.178000
    339 C107        58.7880   -21.6530    -2.2790 ca        16 MOL      -0.234667
    340 H192        59.6990   -21.1610    -2.3940 ha        16 MOL       0.157667
    341 N9          57.5900   -24.8990    -2.2950 no        16 MOL       0.327200
    342 O30         58.7100   -25.4300    -2.3130 o         16 MOL      -0.207833
    343 O31         56.6280   -25.5710    -2.3190 o         16 MOL      -0.207833
    344 N10         55.2310   -21.3000    -1.7160 no        16 MOL       0.321533
    345 O32         54.2370   -21.5900    -2.4920 o         16 MOL      -0.208167
    346 O33         55.1040   -20.3800    -1.0200 o         16 MOL      -0.208167
    347 C108        19.8720    23.2130    29.8150 ca        16 MOL       0.298600
    348 C109        21.0240    23.9430    29.3440 ca        16 MOL      -0.234667
    349 H193        21.8630    23.4530    28.9710 ha        16 MOL       0.157667
    350 C110        21.0020    25.2560    29.4180 ca        16 MOL       0.007000
    351 H194        21.8270    25.8300    29.0980 ha        16 MOL       0.178000
    352 C111        19.8380    25.9090    29.9290 ca        16 MOL      -0.253200
    353 C112        18.7900    25.2640    30.3250 ca        16 MOL       0.036000
    354 H195        17.9380    25.7800    30.7000 ha        16 MOL       0.199333
    355 C113        18.8260    23.8870    30.2790 ca        16 MOL      -0.278200
    356 N11         19.8580    27.1300    29.9850 no        16 MOL       0.327200
    357 O34         18.8190    27.8700    30.3320 o         16 MOL      -0.207833
    358 O35         20.8530    27.6420    29.6870 o         16 MOL      -0.207833
    359 N12         17.7990    23.2770    30.7190 no        16 MOL       0.321533
    360 O36         16.6240    23.8200    30.6670 o         16 MOL      -0.208167
    361 O37         17.9570    22.3520    31.4080 o         16 MOL      -0.208167
    362 C114       -32.8840    27.9130   -19.9880 ca        16 MOL       0.298600
    363 C115       -32.6000    29.2030   -19.2040 ca        16 MOL      -0.278200
    364 C116       -33.5610    30.0640   -19.0210 ca        16 MOL       0.036000
    365 H196       -33.3890    30.9730   -18.4920 ha        16 MOL       0.199333
    366 C117       -34.7730    29.8150   -19.5580 ca        16 MOL      -0.253200
    367 C118       -35.0580    28.7440   -20.2780 ca        16 MOL       0.007000
    368 H197       -36.0270    28.6220   -20.6750 ha        16 MOL       0.178000
    369 C119       -34.0870    27.7660   -20.4950 ca        16 MOL      -0.234667
    370 H198       -34.3240    26.9070   -21.0340 ha        16 MOL       0.157667
    371 N13        -35.6620    30.6350   -19.3910 no        16 MOL       0.327200
    372 O38        -36.7780    30.3980   -19.9560 o         16 MOL      -0.207833
    373 O39        -35.5390    31.5970   -18.7300 o         16 MOL      -0.207833
    374 N14        -31.4390    29.6000   -18.7270 no        16 MOL       0.321533
    375 O40        -31.3610    30.6600   -17.9980 o         16 MOL      -0.208167
    376 O41        -30.4520    29.0840   -19.0750 o         16 MOL      -0.208167
    377 H199        39.5950   -11.6000    -6.6420 h1        16 MOL       0.076200
    378 H200        39.1750   -10.5390    -7.0470 h1        16 MOL       0.076200
@<TRIPOS>BOND
     1     1    10 1   
     2     1    13 1   
     3     1    91 1   
     4     2    11 1   
     5     2    12 1   
     6     2    92 1   
     7     3    14 1   
     8     3    15 1   
     9     3    97 1   
    10     4     5 ar  
    11     4     9 ar  
    12     4    15 1   
    13     5     6 ar  
    14     5    88 1   
    15     6     7 ar  
    16     6    11 1   
    17     7     8 ar  
    18     7    89 1   
    19     8     9 ar  
    20     8    10 1   
    21     9    90 1   
    22    10    73 2   
    23    11    74 2   
    24    12    35 1   
    25    12    93 1   
    26    12    94 1   
    27    13    16 1   
    28    13    95 1   
    29    13    96 1   
    30    14    54 1   
    31    14    98 1   
    32    14    99 1   
    33    15    75 2   
    34    16    17 1   
    35    16   100 1   
    36    16   101 1   
    37    17    18 1   
    38    17   102 1   
    39    17   103 1   
    40    18    19 1   
    41    18   104 1   
    42    18   105 1   
    43    19    20 1   
    44    19   106 1   
    45    19   107 1   
    46    20    21 1   
    47    20   108 1   
    48    20   109 1   
    49    21    22 1   
    50    21   110 1   
    51    21   111 1   
    52    22    23 1   
    53    22   112 1   
    54    22   113 1   
    55    23    24 1   
    56    23   114 1   
    57    23   115 1   
    58    24    25 1   
    59    24   116 1   
    60    24   117 1   
    61    25    26 1   
    62    25   118 1   
    63    25   119 1   
    64    26    76 1   
    65    26   120 1   
    66    26   121 1   
    67    27    28 1   
    68    27    76 1   
    69    27   122 1   
    70    27   123 1   
    71    28    77 1   
    72    28   124 1   
    73    28   125 1   
    74    29    30 1   
    75    29    77 1   
    76    29   126 1   
    77    29   127 1   
    78    30    78 1   
    79    30   128 1   
    80    30   129 1   
    81    31    32 1   
    82    31    78 1   
    83    31   130 1   
    84    31   131 1   
    85    32    79 1   
    86    32   132 1   
    87    32   133 1   
    88    33    34 1   
    89    33    79 1   
    90    33   134 1   
    91    33   135 1   
    92    34   210 1   
    93    34   377 1   
    94    34   378 1   
    95    35    36 1   
    96    35   136 1   
    97    35   137 1   
    98    36    37 1   
    99    36   138 1   
   100    36   139 1   
   101    37    38 1   
   102    37   140 1   
   103    37   141 1   
   104    38    39 1   
   105    38   142 1   
   106    38   143 1   
   107    39    40 1   
   108    39   144 1   
   109    39   145 1   
   110    40    41 1   
   111    40   146 1   
   112    40   147 1   
   113    41    42 1   
   114    41   148 1   
   115    41   149 1   
   116    42    43 1   
   117    42   150 1   
   118    42   151 1   
   119    43    44 1   
   120    43   152 1   
   121    43   153 1   
   122    44    45 1   
   123    44   154 1   
   124    44   155 1   
   125    45    80 1   
   126    45   156 1   
   127    45   157 1   
   128    46    47 1   
   129    46    80 1   
   130    46   158 1   
   131    46   159 1   
   132    47    81 1   
   133    47   160 1   
   134    47   161 1   
   135    48    49 1   
   136    48    81 1   
   137    48   162 1   
   138    48   163 1   
   139    49    82 1   
   140    49   164 1   
   141    49   165 1   
   142    50    51 1   
   143    50    82 1   
   144    50   166 1   
   145    50   167 1   
   146    51    83 1   
   147    51   168 1   
   148    51   169 1   
   149    52    53 1   
   150    52    83 1   
   151    52   170 1   
   152    52   171 1   
   153    53   208 1   
   154    53   209 1   
   155    53   250 1   
   156    54    55 1   
   157    54   172 1   
   158    54   173 1   
   159    55    56 1   
   160    55   174 1   
   161    55   175 1   
   162    56    57 1   
   163    56   176 1   
   164    56   177 1   
   165    57    58 1   
   166    57   178 1   
   167    57   179 1   
   168    58    59 1   
   169    58   180 1   
   170    58   181 1   
   171    59    60 1   
   172    59   182 1   
   173    59   183 1   
   174    60    61 1   
   175    60   184 1   
   176    60   185 1   
   177    61    62 1   
   178    61   186 1   
   179    61   187 1   
   180    62    63 1   
   181    62   188 1   
   182    62   189 1   
   183    63    64 1   
   184    63   190 1   
   185    63   191 1   
   186    64    84 1   
   187    64   192 1   
   188    64   193 1   
   189    65    66 1   
   190    65    84 1   
   191    65   194 1   
   192    65   195 1   
   193    66    85 1   
   194    66   196 1   
   195    66   197 1   
   196    67    68 1   
   197    67    85 1   
   198    67   198 1   
   199    67   199 1   
   200    68    86 1   
   201    68   200 1   
   202    68   201 1   
   203    69    70 1   
   204    69    86 1   
   205    69   202 1   
   206    69   203 1   
   207    70    87 1   
   208    70   204 1   
   209    70   205 1   
   210    71    72 1   
   211    71    87 1   
   212    71   206 1   
   213    71   207 1   
   214    72   290 1   
   215    72   291 1   
   216    72   292 1   
   217   210   211 1   
   218   210   212 1   
   219   211   213 2   
   220   211   214 1   
   221   214   215 1   
   222   214   216 1   
   223   214   217 1   
   224   215   218 1   
   225   215   219 1   
   226   215   220 1   
   227   218   221 1   
   228   221   222 1   
   229   221   223 1   
   230   221   224 1   
   231   222   225 1   
   232   222   226 1   
   233   222   227 1   
   234   225   228 1   
   235   228   229 1   
   236   228   230 1   
   237   228   231 1   
   238   229   232 1   
   239   229   233 1   
   240   229   234 1   
   241   232   235 1   
   242   235   236 1   
   243   235   237 1   
   244   235   238 1   
   245   236   239 1   
   246   236   240 1   
   247   236   241 1   
   248   239   242 1   
   249   242   243 1   
   250   242   244 1   
   251   242   245 1   
   252   243   246 1   
   253   243   247 1   
   254   243   248 1   
   255   246   249 1   
   256   246   332 1   
   257   250   251 1   
   258   250   252 1   
   259   251   253 2   
   260   251   254 1   
   261   254   255 1   
   262   254   256 1   
   263   254   257 1   
   264   255   258 1   
   265   255   259 1   
   266   255   260 1   
   267   258   261 1   
   268   261   262 1   
   269   261   263 1   
   270   261   264 1   
   271   262   265 1   
   272   262   266 1   
   273   262   267 1   
   274   265   268 1   
   275   268   269 1   
   276   268   270 1   
   277   268   271 1   
   278   269   272 1   
   279   269   273 1   
   280   269   274 1   
   281   272   275 1   
   282   275   276 1   
   283   275   277 1   
   284   275   278 1   
   285   276   279 1   
   286   276   280 1   
   287   276   281 1   
   288   279   282 1   
   289   282   283 1   
   290   282   284 1   
   291   282   285 1   
   292   283   286 1   
   293   283   287 1   
   294   283   288 1   
   295   286   289 1   
   296   286   347 1   
   297   290   293 1   
   298   290   294 1   
   299   293   295 2   
   300   293   296 1   
   301   296   297 1   
   302   296   298 1   
   303   296   299 1   
   304   297   300 1   
   305   297   301 1   
   306   297   302 1   
   307   300   303 1   
   308   303   304 1   
   309   303   305 1   
   310   303   306 1   
   311   304   307 1   
   312   304   308 1   
   313   304   309 1   
   314   307   310 1   
   315   310   311 1   
   316   310   312 1   
   317   310   313 1   
   318   311   314 1   
   319   311   315 1   
   320   311   316 1   
   321   314   317 1   
   322   317   318 1   
   323   317   319 1   
   324   317   320 1   
   325   318   321 1   
   326   318   322 1   
   327   318   323 1   
   328   321   324 1   
   329   324   325 1   
   330   324   326 1   
   331   324   327 1   
   332   325   328 1   
   333   325   329 1   
   334   325   330 1   
   335   328   331 1   
   336   328   362 1   
   337   332   333 ar  
   338   332   339 ar  
   339   333   334 ar  
   340   333   344 1   
   341   334   335 1   
   342   334   336 ar  
   343   336   337 ar  
   344   336   341 1   
   345   337   338 1   
   346   337   339 ar  
   347   339   340 1   
   348   341   342 1   
   349   341   343 1   
   350   344   345 1   
   351   344   346 1   
   352   347   348 ar  
   353   347   355 ar  
   354   348   349 1   
   355   348   350 ar  
   356   350   351 1   
   357   350   352 ar  
   358   352   353 ar  
   359   352   356 1   
   360   353   354 1   
   361   353   355 ar  
   362   355   359 1   
   363   356   357 1   
   364   356   358 1   
   365   359   360 1   
   366   359   361 1   
   367   362   363 ar  
   368   362   369 ar  
   369   363   364 ar  
   370   363   374 1   
   371   364   365 1   
   372   364   366 ar  
   373   366   367 ar  
   374   366   371 1   
   375   367   368 1   
   376   367   369 ar  
   377   369   370 1   
   378   371   372 1   
   379   371   373 1   
   380   374   375 1   
   381   374   376 1   
@<TRIPOS>SUBSTRUCTURE
     1 MOL         1 TEMP              0 ****  ****    0 ROOT
