@<TRIPOS>MOLECULE
MOL
  219   219     1     0     0
SMALL
bcc


@<TRIPOS>ATOM
      1 N            6.3860   -15.6940    -4.3470 n         10 MOL      -0.563900
      2 N1           4.4680   -12.9770     1.0650 n         10 MOL      -0.563900
      3 N2           0.6040   -12.0770    -2.1930 n         10 MOL      -0.563900
      4 C            2.3410   -13.7250    -2.5900 ca        10 MOL      -0.152933
      5 C1           2.9040   -13.6180    -1.3090 ca        10 MOL      -0.039667
      6 C2           4.1600   -14.1750    -1.0170 ca        10 MOL      -0.152933
      7 C3           4.8490   -14.8550    -2.0310 ca        10 MOL      -0.039667
      8 C4           4.3130   -14.9720    -3.3230 ca        10 MOL      -0.152933
      9 C5           3.0550   -14.4110    -3.5820 ca        10 MOL      -0.039667
     10 C6           5.0500   -15.6950    -4.4270 c         10 MOL       0.668033
     11 C7           4.7580   -14.0800     0.3660 c         10 MOL       0.668033
     12 C8           5.0580   -12.8550     2.3740 c3        10 MOL       0.084000
     13 C9           7.1450   -16.3360    -5.3720 c3        10 MOL       0.084000
     14 C10         -0.6580   -11.4550    -2.4270 c3        10 MOL       0.084000
     15 C11          0.9870   -13.1380    -2.9140 c         10 MOL       0.668033
     16 C12          8.3140   -17.1410    -4.8040 c3        10 MOL      -0.105067
     17 C13          9.0090   -17.7900    -6.0010 c3        10 MOL      -0.077400
     18 C14         10.1940   -18.6510    -5.5620 c3        10 MOL      -0.078733
     19 C15         10.7800   -19.2770    -6.8300 c3        10 MOL      -0.079400
     20 C16         11.9660   -20.1870    -6.5070 c3        10 MOL      -0.078733
     21 C17         12.4430   -20.7840    -7.8340 c3        10 MOL      -0.079400
     22 C18         13.6190   -21.7370    -7.6190 c3        10 MOL      -0.079400
     23 C19         13.9990   -22.3070    -8.9940 c3        10 MOL      -0.078400
     24 C20         15.1620   -23.2990    -8.8810 c3        10 MOL      -0.078400
     25 C21         15.4500   -23.8370   -10.2910 c3        10 MOL      -0.084400
     26 C22         16.5960   -24.8590   -10.2620 c3        10 MOL       0.133400
     27 C23         17.8080   -26.2840   -11.6240 c3        10 MOL       0.128400
     28 C24         17.9340   -26.7470   -13.0180 c3        10 MOL       0.130400
     29 C25         19.1330   -28.2110   -14.1620 c3        10 MOL       0.130400
     30 C26         20.1680   -29.1560   -13.9290 c3        10 MOL       0.129400
     31 C27         21.2750   -30.6050   -15.1680 c3        10 MOL       0.130400
     32 C28         21.2490   -30.9930   -16.5440 c3        10 MOL       0.128400
     33 C29         22.2860   -32.4040   -17.9050 c3        10 MOL       0.094400
     34 C30         23.3680   -33.4050   -17.8150 c3        10 MOL       0.125400
     35 C31          4.4070   -11.8260     3.3000 c3        10 MOL      -0.105067
     36 C32          5.2210   -11.9120     4.5950 c3        10 MOL      -0.077400
     37 C33          4.7220   -10.9590     5.6780 c3        10 MOL      -0.078733
     38 C34          5.6440   -11.1890     6.8830 c3        10 MOL      -0.079400
     39 C35          5.2780   -10.3090     8.0800 c3        10 MOL      -0.078733
     40 C36          6.2820   -10.6590     9.1870 c3        10 MOL      -0.079400
     41 C37          6.0300    -9.8490    10.4610 c3        10 MOL      -0.079400
     42 C38          7.0920   -10.2870    11.4840 c3        10 MOL      -0.078400
     43 C39          6.9390    -9.5380    12.8140 c3        10 MOL      -0.078400
     44 C40          8.0430   -10.0460    13.7570 c3        10 MOL      -0.084400
     45 C41          7.9650    -9.3440    15.1240 c3        10 MOL       0.133400
     46 C42          8.9940    -9.2580    17.1990 c3        10 MOL       0.128400
     47 C43         10.1050    -9.8310    17.9840 c3        10 MOL       0.130400
     48 C44         10.9770    -9.6170    20.0060 c3        10 MOL       0.130400
     49 C45         10.7490    -8.8710    21.1950 c3        10 MOL       0.129400
     50 C46         11.7100    -8.7440    23.1760 c3        10 MOL       0.130400
     51 C47         12.8280    -9.3740    23.8070 c3        10 MOL       0.128400
     52 C48         13.9030    -9.3220    25.7460 c3        10 MOL       0.094400
     53 C49         13.8010    -8.5960    27.0280 c3        10 MOL       0.125400
     54 C50         -1.0080   -10.5760    -1.2280 c3        10 MOL      -0.105067
     55 C51         -2.3450    -9.9000    -1.4730 c3        10 MOL      -0.077400
     56 C52         -2.6740    -9.0250    -0.2650 c3        10 MOL      -0.078733
     57 C53         -4.0070    -8.3380    -0.5130 c3        10 MOL      -0.079400
     58 C54         -4.3570    -7.4520     0.6780 c3        10 MOL      -0.078733
     59 C55         -5.6860    -6.7810     0.3690 c3        10 MOL      -0.079400
     60 C56         -6.1020    -5.8650     1.5140 c3        10 MOL      -0.079400
     61 C57         -7.4290    -5.2300     1.1070 c3        10 MOL      -0.078400
     62 C58         -7.9420    -4.2750     2.1820 c3        10 MOL      -0.078400
     63 C59         -9.2560    -3.6940     1.6570 c3        10 MOL      -0.084400
     64 C60         -9.8640    -2.7060     2.6500 c3        10 MOL       0.133400
     65 C61        -11.6900    -1.3010     2.8760 c3        10 MOL       0.128400
     66 C62        -12.8930    -0.8650     2.1560 c3        10 MOL       0.130400
     67 C63        -14.5690     0.5220     2.4280 c3        10 MOL       0.130400
     68 C64        -15.0530     1.4480     3.3860 c3        10 MOL       0.129400
     69 C65        -16.7920     2.8040     3.4840 c3        10 MOL       0.130400
     70 C66        -17.8800     3.1040     2.6080 c3        10 MOL       0.128400
     71 C67        -19.6780     4.3940     2.5490 c3        10 MOL       0.094400
     72 C68        -20.3410     5.3740     3.4300 c3        10 MOL       0.125400
     73 O            4.4410   -16.2250    -5.3570 o         10 MOL      -0.592767
     74 O1           5.4840   -14.9730     0.8070 o         10 MOL      -0.592767
     75 O2           0.2870   -13.6120    -3.8110 o         10 MOL      -0.592767
     76 O3          16.8020   -25.3380   -11.5970 os        10 MOL      -0.427600
     77 O4          18.9340   -27.6860   -12.9680 os        10 MOL      -0.430600
     78 O5          20.3320   -29.6680   -15.1440 os        10 MOL      -0.430267
     79 O6          22.1760   -31.9270   -16.6170 os        10 MOL      -0.425600
     80 O7          23.5690   -33.9470   -19.0760 oh        10 MOL      -0.592800
     81 O8           9.0180    -9.8570    15.9530 os        10 MOL      -0.427600
     82 O9          10.0210    -9.1940    19.1990 os        10 MOL      -0.430600
     83 O10         11.7260    -9.3190    21.9770 os        10 MOL      -0.430267
     84 O11         12.8530    -8.8260    25.0050 os        10 MOL      -0.425600
     85 O12         14.8310    -9.0190    27.8550 oh        10 MOL      -0.592800
     86 O13        -11.0700    -2.2170     2.0620 os        10 MOL      -0.427600
     87 O14        -13.4760     0.0470     2.9880 os        10 MOL      -0.430600
     88 O15        -16.1410     1.8940     2.7700 os        10 MOL      -0.430267
     89 O16        -18.5700     4.0080     3.2690 os        10 MOL      -0.425600
     90 O17        -21.4890     5.8250     2.7970 oh        10 MOL      -0.592800
     91 H253         2.3860   -13.1210    -0.5680 ha        10 MOL       0.160333
     92 H254         5.7670   -15.2770    -1.8240 ha        10 MOL       0.160333
     93 H255         2.6450   -14.5050    -4.5240 ha        10 MOL       0.160333
     94 H250         6.7900   -15.2490    -3.5670 hn        10 MOL       0.305167
     95 H251         3.9250   -12.2860     0.6210 hn        10 MOL       0.305167
     96 H5           6.1130   -12.5830     2.2400 h1        10 MOL       0.064700
     97 H6           5.0280   -13.8470     2.8500 h1        10 MOL       0.064700
     98 H7           6.4770   -16.9990    -5.9410 h1        10 MOL       0.064700
     99 H8           7.5510   -15.5700    -6.0480 h1        10 MOL       0.064700
    100 H252         1.2230   -11.7440    -1.5040 hn        10 MOL       0.305167
    101 H10         -1.4230   -12.2280    -2.5870 h1        10 MOL       0.064700
    102 H11         -0.5910   -10.8380    -3.3340 h1        10 MOL       0.064700
    103 H12          9.0110   -16.4810    -4.2660 hc        10 MOL       0.044533
    104 H13          7.9390   -17.9200    -4.1250 hc        10 MOL       0.044533
    105 H105         9.3620   -17.0070    -6.6860 hc        10 MOL       0.044033
    106 H15          8.2830   -18.4290    -6.5230 hc        10 MOL       0.044033
    107 H16          9.8460   -19.4430    -4.8840 hc        10 MOL       0.040533
    108 H17         10.9460   -18.0310    -5.0540 hc        10 MOL       0.040533
    109 H18         11.1090   -18.4800    -7.5130 hc        10 MOL       0.041033
    110 H19          9.9990   -19.8760    -7.3200 hc        10 MOL       0.041033
    111 H20         11.6440   -20.9940    -5.8340 hc        10 MOL       0.039867
    112 H21         12.7740   -19.6090    -6.0350 hc        10 MOL       0.039867
    113 H22         12.7490   -19.9740    -8.5110 hc        10 MOL       0.040533
    114 H23         11.6120   -21.3430    -8.2880 hc        10 MOL       0.040533
    115 H24         13.3150   -22.5540    -6.9490 hc        10 MOL       0.039533
    116 H25         14.4700   -21.1950    -7.1800 hc        10 MOL       0.039533
    117 H26         14.2870   -21.4840    -9.6630 hc        10 MOL       0.042033
    118 H27         13.1270   -22.8290    -9.4130 hc        10 MOL       0.042033
    119 H28         14.8760   -24.1300    -8.2210 hc        10 MOL       0.040200
    120 H29         16.0510   -22.7950    -8.4780 hc        10 MOL       0.040200
    121 H30         15.7220   -23.0000   -10.9510 hc        10 MOL       0.055200
    122 H31         14.5430   -24.3250   -10.6770 hc        10 MOL       0.055200
    123 H32         16.3210   -25.6990    -9.6060 h1        10 MOL       0.027533
    124 H33         17.5140   -24.3830    -9.8870 h1        10 MOL       0.027533
    125 H34         17.5470   -27.1370   -10.9820 h1        10 MOL       0.039700
    126 H35         18.7590   -25.8450   -11.2920 h1        10 MOL       0.039700
    127 H36         18.2100   -25.9130   -13.6820 h1        10 MOL       0.042700
    128 H37         16.9890   -27.2030   -13.3550 h1        10 MOL       0.042700
    129 H38         19.4630   -27.4520   -14.8850 h1        10 MOL       0.042533
    130 H39         18.2310   -28.7210   -14.5280 h1        10 MOL       0.042533
    131 H40         19.8380   -29.9200   -13.2090 h1        10 MOL       0.042700
    132 H41         21.0790   -28.6550   -13.5710 h1        10 MOL       0.042700
    133 H42         21.0180   -31.4560   -14.5200 h1        10 MOL       0.042700
    134 H43         22.2600   -30.1970   -14.8980 h1        10 MOL       0.042700
    135 H44         21.4970   -30.1340   -17.1830 h1        10 MOL       0.042200
    136 H45         20.2590   -31.3910   -16.8070 h1        10 MOL       0.042200
    137 H46         22.5690   -31.5950   -18.5970 h1        10 MOL       0.033700
    138 H47         21.3450   -32.8720   -18.2320 h1        10 MOL       0.033700
    139 H48         24.2860   -32.9120   -17.4680 h1        10 MOL       0.059200
    140 H49         23.0800   -34.1920   -17.1050 h1        10 MOL       0.059200
    141 H50         22.7470   -34.4060   -19.3860 ho        10 MOL       0.398000
    142 H51          3.3570   -12.0880     3.4920 hc        10 MOL       0.044533
    143 H52          4.4730   -10.8160     2.8710 hc        10 MOL       0.044533
    144 H53          6.2700   -11.6730     4.3690 hc        10 MOL       0.044033
    145 H54          5.1600   -12.9400     4.9790 hc        10 MOL       0.044033
    146 H55          3.6820   -11.1950     5.9410 hc        10 MOL       0.040533
    147 H56          4.7940    -9.9180     5.3330 hc        10 MOL       0.040533
    148 H57          6.6790   -10.9690     6.5850 hc        10 MOL       0.041033
    149 H58          5.5710   -12.2430     7.1860 hc        10 MOL       0.041033
    150 H59          4.2540   -10.5280     8.4140 hc        10 MOL       0.039867
    151 H60          5.3640    -9.2460     7.8120 hc        10 MOL       0.039867
    152 H61          7.2980   -10.4500     8.8260 hc        10 MOL       0.040533
    153 H62          6.1930   -11.7290     9.4230 hc        10 MOL       0.040533
    154 H63          5.0220   -10.0590    10.8460 hc        10 MOL       0.039533
    155 H64          6.1290    -8.7740    10.2480 hc        10 MOL       0.039533
    156 H65          8.0910   -10.0840    11.0710 hc        10 MOL       0.042033
    157 H66          6.9880   -11.3660    11.6670 hc        10 MOL       0.042033
    158 H67          5.9510    -9.7440    13.2480 hc        10 MOL       0.040200
    159 H68          7.0550    -8.4570    12.6500 hc        10 MOL       0.040200
    160 H69          9.0240    -9.8440    13.3030 hc        10 MOL       0.055200
    161 H70          7.9240   -11.1300    13.9000 hc        10 MOL       0.055200
    162 H71          6.9900    -9.5490    15.5910 h1        10 MOL       0.027533
    163 H72          8.0910    -8.2590    14.9910 h1        10 MOL       0.027533
    164 H73          8.0420    -9.4660    17.7060 h1        10 MOL       0.039700
    165 H74          9.1360    -8.1720    17.1040 h1        10 MOL       0.039700
    166 H75         11.0690    -9.6180    17.4970 h1        10 MOL       0.042700
    167 H76          9.9730   -10.9180    18.1020 h1        10 MOL       0.042700
    168 H77         11.9720    -9.3900    19.6000 h1        10 MOL       0.042533
    169 H78         10.8830   -10.6930    20.2080 h1        10 MOL       0.042533
    170 H79          9.7580    -9.0990    21.6130 h1        10 MOL       0.042700
    171 H80         10.8480    -7.7930    21.0010 h1        10 MOL       0.042700
    172 H81         10.7800    -8.9640    23.7200 h1        10 MOL       0.042700
    173 H82         11.8680    -7.6570    23.1060 h1        10 MOL       0.042700
    174 H83         13.7490    -9.1520    23.2490 h1        10 MOL       0.042200
    175 H84         12.6700   -10.4590    23.8660 h1        10 MOL       0.042200
    176 H85         14.8650    -9.1000    25.2560 h1        10 MOL       0.033700
    177 H86         13.7970   -10.4070    25.9010 h1        10 MOL       0.033700
    178 H87         12.8290    -8.8110    27.4940 h1        10 MOL       0.059200
    179 H88         13.8900    -7.5180    26.8390 h1        10 MOL       0.059200
    180 H89         14.7460    -9.9890    28.0390 ho        10 MOL       0.398000
    181 H90         -0.2320    -9.8090    -1.0950 hc        10 MOL       0.044533
    182 H91         -1.0730   -11.1960    -0.3220 hc        10 MOL       0.044533
    183 H92         -3.1270   -10.6600    -1.6050 hc        10 MOL       0.044033
    184 H93         -2.2810    -9.2770    -2.3760 hc        10 MOL       0.044033
    185 H94         -1.8880    -8.2680    -0.1340 hc        10 MOL       0.040533
    186 H95         -2.7390    -9.6500     0.6370 hc        10 MOL       0.040533
    187 H96         -4.7930    -9.0950    -0.6490 hc        10 MOL       0.041033
    188 H97         -3.9350    -7.7180    -1.4180 hc        10 MOL       0.041033
    189 H98         -3.5780    -6.6880     0.8160 hc        10 MOL       0.039867
    190 H99         -4.4440    -8.0620     1.5880 hc        10 MOL       0.039867
    191 H100        -6.4570    -7.5500     0.2200 hc        10 MOL       0.040533
    192 H101        -5.5830    -6.1850    -0.5490 hc        10 MOL       0.040533
    193 H102        -5.3410    -5.0860     1.6640 hc        10 MOL       0.039533
    194 H103        -6.2250    -6.4490     2.4390 hc        10 MOL       0.039533
    195 H104        -8.1740    -6.0210     0.9430 hc        10 MOL       0.042033
    196 H14         -7.2830    -4.6690     0.1730 hc        10 MOL       0.042033
    197 H106        -7.2140    -3.4680     2.3460 hc        10 MOL       0.040200
    198 H107        -8.1150    -4.8180     3.1220 hc        10 MOL       0.040200
    199 H108        -9.9670    -4.5140     1.4800 hc        10 MOL       0.055200
    200 H109        -9.0600    -3.1720     0.7090 hc        10 MOL       0.055200
    201 H110        -9.1660    -1.8730     2.8240 h1        10 MOL       0.027533
    202 H111       -10.0840    -3.2130     3.6020 h1        10 MOL       0.027533
    203 H112       -11.0340    -0.4370     3.0540 h1        10 MOL       0.039700
    204 H113       -11.9730    -1.7600     3.8330 h1        10 MOL       0.039700
    205 H114       -13.5650    -1.7190     1.9770 h1        10 MOL       0.042700
    206 H115       -12.6140    -0.3960     1.1990 h1        10 MOL       0.042700
    207 H116       -15.3090    -0.2720     2.2580 h1        10 MOL       0.042533
    208 H117       -14.3410     1.0380     1.4850 h1        10 MOL       0.042533
    209 H118       -14.3210     2.2510     3.5540 h1        10 MOL       0.042700
    210 H119       -15.2960     0.9400     4.3310 h1        10 MOL       0.042700
    211 H120       -16.1770     3.6990     3.6630 h1        10 MOL       0.042700
    212 H121       -17.1600     2.3900     4.4340 h1        10 MOL       0.042700
    213 H122       -18.4790     2.2000     2.4280 h1        10 MOL       0.042200
    214 H123       -17.5020     3.5060     1.6570 h1        10 MOL       0.042200
    215 H124       -20.3410     3.5340     2.3640 h1        10 MOL       0.033700
    216 H125       -19.3840     4.8600     1.5950 h1        10 MOL       0.033700
    217 H126       -19.6590     6.2130     3.6220 h1        10 MOL       0.059200
    218 H127       -20.6020     4.8840     4.3780 h1        10 MOL       0.059200
    219 H128       -21.2560     6.2790     1.9480 ho        10 MOL       0.398000
@<TRIPOS>BOND
     1     1    10 1   
     2     1    13 1   
     3     1    94 1   
     4     2    11 1   
     5     2    12 1   
     6     2    95 1   
     7     3    14 1   
     8     3    15 1   
     9     3   100 1   
    10     4     5 ar  
    11     4     9 ar  
    12     4    15 1   
    13     5     6 ar  
    14     5    91 1   
    15     6     7 ar  
    16     6    11 1   
    17     7     8 ar  
    18     7    92 1   
    19     8     9 ar  
    20     8    10 1   
    21     9    93 1   
    22    10    73 2   
    23    11    74 2   
    24    12    35 1   
    25    12    96 1   
    26    12    97 1   
    27    13    16 1   
    28    13    98 1   
    29    13    99 1   
    30    14    54 1   
    31    14   101 1   
    32    14   102 1   
    33    15    75 2   
    34    16    17 1   
    35    16   103 1   
    36    16   104 1   
    37    17    18 1   
    38    17   105 1   
    39    17   106 1   
    40    18    19 1   
    41    18   107 1   
    42    18   108 1   
    43    19    20 1   
    44    19   109 1   
    45    19   110 1   
    46    20    21 1   
    47    20   111 1   
    48    20   112 1   
    49    21    22 1   
    50    21   113 1   
    51    21   114 1   
    52    22    23 1   
    53    22   115 1   
    54    22   116 1   
    55    23    24 1   
    56    23   117 1   
    57    23   118 1   
    58    24    25 1   
    59    24   119 1   
    60    24   120 1   
    61    25    26 1   
    62    25   121 1   
    63    25   122 1   
    64    26    76 1   
    65    26   123 1   
    66    26   124 1   
    67    27    28 1   
    68    27    76 1   
    69    27   125 1   
    70    27   126 1   
    71    28    77 1   
    72    28   127 1   
    73    28   128 1   
    74    29    30 1   
    75    29    77 1   
    76    29   129 1   
    77    29   130 1   
    78    30    78 1   
    79    30   131 1   
    80    30   132 1   
    81    31    32 1   
    82    31    78 1   
    83    31   133 1   
    84    31   134 1   
    85    32    79 1   
    86    32   135 1   
    87    32   136 1   
    88    33    34 1   
    89    33    79 1   
    90    33   137 1   
    91    33   138 1   
    92    34    80 1   
    93    34   139 1   
    94    34   140 1   
    95    35    36 1   
    96    35   142 1   
    97    35   143 1   
    98    36    37 1   
    99    36   144 1   
   100    36   145 1   
   101    37    38 1   
   102    37   146 1   
   103    37   147 1   
   104    38    39 1   
   105    38   148 1   
   106    38   149 1   
   107    39    40 1   
   108    39   150 1   
   109    39   151 1   
   110    40    41 1   
   111    40   152 1   
   112    40   153 1   
   113    41    42 1   
   114    41   154 1   
   115    41   155 1   
   116    42    43 1   
   117    42   156 1   
   118    42   157 1   
   119    43    44 1   
   120    43   158 1   
   121    43   159 1   
   122    44    45 1   
   123    44   160 1   
   124    44   161 1   
   125    45    81 1   
   126    45   162 1   
   127    45   163 1   
   128    46    47 1   
   129    46    81 1   
   130    46   164 1   
   131    46   165 1   
   132    47    82 1   
   133    47   166 1   
   134    47   167 1   
   135    48    49 1   
   136    48    82 1   
   137    48   168 1   
   138    48   169 1   
   139    49    83 1   
   140    49   170 1   
   141    49   171 1   
   142    50    51 1   
   143    50    83 1   
   144    50   172 1   
   145    50   173 1   
   146    51    84 1   
   147    51   174 1   
   148    51   175 1   
   149    52    53 1   
   150    52    84 1   
   151    52   176 1   
   152    52   177 1   
   153    53    85 1   
   154    53   178 1   
   155    53   179 1   
   156    54    55 1   
   157    54   181 1   
   158    54   182 1   
   159    55    56 1   
   160    55   183 1   
   161    55   184 1   
   162    56    57 1   
   163    56   185 1   
   164    56   186 1   
   165    57    58 1   
   166    57   187 1   
   167    57   188 1   
   168    58    59 1   
   169    58   189 1   
   170    58   190 1   
   171    59    60 1   
   172    59   191 1   
   173    59   192 1   
   174    60    61 1   
   175    60   193 1   
   176    60   194 1   
   177    61    62 1   
   178    61   195 1   
   179    61   196 1   
   180    62    63 1   
   181    62   197 1   
   182    62   198 1   
   183    63    64 1   
   184    63   199 1   
   185    63   200 1   
   186    64    86 1   
   187    64   201 1   
   188    64   202 1   
   189    65    66 1   
   190    65    86 1   
   191    65   203 1   
   192    65   204 1   
   193    66    87 1   
   194    66   205 1   
   195    66   206 1   
   196    67    68 1   
   197    67    87 1   
   198    67   207 1   
   199    67   208 1   
   200    68    88 1   
   201    68   209 1   
   202    68   210 1   
   203    69    70 1   
   204    69    88 1   
   205    69   211 1   
   206    69   212 1   
   207    70    89 1   
   208    70   213 1   
   209    70   214 1   
   210    71    72 1   
   211    71    89 1   
   212    71   215 1   
   213    71   216 1   
   214    72    90 1   
   215    72   217 1   
   216    72   218 1   
   217    80   141 1   
   218    85   180 1   
   219    90   219 1   
@<TRIPOS>SUBSTRUCTURE
     1 MOL         1 TEMP              0 ****  ****    0 ROOT
