@<TRIPOS>MOLECULE
MOL
  378   381     1     0     0
SMALL
bcc


@<TRIPOS>ATOM
      1 N            8.3310    -7.6590   -11.5520 n         13 MOL      -0.558900
      2 N1           8.3020    -4.6700    -5.7540 n         13 MOL      -0.558900
      3 N2           3.6330    -3.5620    -9.7650 n         13 MOL      -0.558900
      4 C            5.4950    -5.0950    -9.6170 ca        13 MOL      -0.157933
      5 C1           5.7030    -4.8610    -8.2500 ca        13 MOL      -0.038000
      6 C2           6.8810    -5.2570    -7.6130 ca        13 MOL      -0.157933
      7 C3           7.8550    -5.9370    -8.3560 ca        13 MOL      -0.038000
      8 C4           7.6620    -6.2270    -9.7130 ca        13 MOL      -0.157933
      9 C5           6.4790    -5.7890   -10.3350 ca        13 MOL      -0.038000
     10 C6           8.7310    -6.9820   -10.4690 c         13 MOL       0.669367
     11 C7           7.0620    -4.9870    -6.1420 c         13 MOL       0.669367
     12 C8           8.6620    -4.4800    -4.3740 c3        13 MOL       0.084000
     13 C9           9.2600    -8.4160   -12.4080 c3        13 MOL       0.084000
     14 C10          2.4120    -3.0390   -10.2980 c3        13 MOL       0.084000
     15 C11          4.2280    -4.6360   -10.3000 c         13 MOL       0.669367
     16 C12          1.7940    -2.0720    -9.2730 c3        13 MOL      -0.105400
     17 C13          0.4780    -1.4880    -9.8080 c3        13 MOL      -0.077400
     18 C14         -0.0950    -0.5360    -8.7420 c3        13 MOL      -0.078733
     19 C15         -1.4220     0.0820    -9.2200 c3        13 MOL      -0.079400
     20 C16         -1.9520     1.0170    -8.1210 c3        13 MOL      -0.078733
     21 C17         -3.2790     1.6520    -8.5660 c3        13 MOL      -0.079400
     22 C18         -3.7870     2.5790    -7.4490 c3        13 MOL      -0.079400
     23 C19         -5.1180     3.2260    -7.8760 c3        13 MOL      -0.078400
     24 C20         -5.6240     4.1530    -6.7570 c3        13 MOL      -0.078400
     25 C21         -6.9530     4.7950    -7.1930 c3        13 MOL      -0.084400
     26 C22         -7.4710     5.7270    -6.0770 c3        13 MOL       0.133400
     27 C23         -9.1730     7.1830    -5.4450 c3        13 MOL       0.128067
     28 C24        -10.5040     7.8410    -5.8780 c3        13 MOL       0.130067
     29 C25        -12.1990     9.3050    -5.2580 c3        13 MOL       0.129733
     30 C26        -12.7200    10.2440    -4.1290 c3        13 MOL       0.129400
     31 C27        -14.3490    11.7160    -3.4110 c3        13 MOL       0.130067
     32 C28        -15.6840    12.4690    -3.7220 c3        13 MOL       0.128400
     33 C29        -17.2820    14.0090    -2.8850 c3        13 MOL       0.105400
     34 C30        -17.7390    14.9450    -1.6810 c3        13 MOL       0.085333
     35 C31         10.2160    -9.3520   -11.6110 c3        13 MOL      -0.105400
     36 C32         11.1810   -10.0460   -12.5800 c3        13 MOL      -0.077400
     37 C33         12.1540   -10.9120   -11.7690 c3        13 MOL      -0.078733
     38 C34         13.1640   -11.5840   -12.7100 c3        13 MOL      -0.079400
     39 C35         14.1570   -12.4010   -11.8730 c3        13 MOL      -0.078733
     40 C36         15.1920   -13.0510   -12.7980 c3        13 MOL      -0.079400
     41 C37         16.2010   -13.8350   -11.9490 c3        13 MOL      -0.079400
     42 C38         17.2540   -14.4720   -12.8690 c3        13 MOL      -0.078400
     43 C39         18.2820   -15.2380   -12.0230 c3        13 MOL      -0.078400
     44 C40         19.3320   -15.8600   -12.9560 c3        13 MOL      -0.084400
     45 C41         20.3800   -16.6200   -12.1250 c3        13 MOL       0.133400
     46 C42         22.3150   -17.8740   -12.2760 c3        13 MOL       0.128067
     47 C43         23.2820   -18.4590   -13.2280 c3        13 MOL       0.130067
     48 C44         25.1140   -19.7090   -13.1590 c3        13 MOL       0.129733
     49 C45         25.9510   -20.3260   -12.1840 c3        13 MOL       0.129400
     50 C46         27.7580   -21.6020   -12.1820 c3        13 MOL       0.130067
     51 C47         28.6250   -22.2120   -13.1870 c3        13 MOL       0.128400
     52 C48         30.4450   -23.5650   -13.4270 c3        13 MOL       0.105400
     53 C49         31.4720   -24.3480   -12.6240 c3        13 MOL       0.085333
     54 C50          8.0140    -3.2530    -3.7160 c3        13 MOL      -0.105400
     55 C51          8.5440    -3.2550    -2.2800 c3        13 MOL      -0.077400
     56 C52          8.0120    -2.0880    -1.4510 c3        13 MOL      -0.078733
     57 C53          8.6580    -2.2340    -0.0660 c3        13 MOL      -0.079400
     58 C54          8.2310    -1.1250     0.8990 c3        13 MOL      -0.078733
     59 C55          8.9660    -1.3970     2.2190 c3        13 MOL      -0.079400
     60 C56          8.6280    -0.3470     3.2810 c3        13 MOL      -0.079400
     61 C57          9.4280    -0.7100     4.5450 c3        13 MOL      -0.078400
     62 C58          9.1650     0.2860     5.6820 c3        13 MOL      -0.078400
     63 C59         10.0140    -0.1480     6.8900 c3        13 MOL      -0.084400
     64 C60          9.8060     0.8090     8.0760 c3        13 MOL       0.133400
     65 C61         10.4730     1.2040    10.2580 c3        13 MOL       0.128067
     66 C62         11.3680     0.7170    11.3260 c3        13 MOL       0.130067
     67 C63         11.9380     1.3270    13.3840 c3        13 MOL       0.129733
     68 C64         11.5850     2.3500    14.3100 c3        13 MOL       0.129400
     69 C65         12.1780     3.0350    16.3230 c3        13 MOL       0.130067
     70 C66         13.1670     2.6750    17.3480 c3        13 MOL       0.128400
     71 C67         14.0030     3.3220    19.3830 c3        13 MOL       0.105400
     72 C68         13.8380     4.3690    20.4860 c3        13 MOL       0.085333
     73 O            9.9020    -6.9880   -10.0830 o         13 MOL      -0.606100
     74 O1           6.1100    -5.0600    -5.3630 o         13 MOL      -0.606100
     75 O2           3.7810    -5.2190   -11.2880 o         13 MOL      -0.606100
     76 O3          -8.7040     6.3260    -6.4850 os        13 MOL      -0.428267
     77 O4         -10.9750     8.7000    -4.8390 os        13 MOL      -0.430600
     78 O5         -13.9510    10.8790    -4.5050 os        13 MOL      -0.430600
     79 O6         -16.0400    13.2910    -2.6020 os        13 MOL      -0.425600
     80 O8          21.3520   -17.1950   -13.0080 os        13 MOL      -0.428267
     81 O9          24.1910   -19.1090   -12.4250 os        13 MOL      -0.430600
     82 O10         26.8550   -20.9320   -12.9400 os        13 MOL      -0.430600
     83 O11         29.5730   -22.9230   -12.5110 os        13 MOL      -0.425600
     84 O13         10.6280     0.3690     9.1680 os        13 MOL      -0.428267
     85 O14         11.1570     1.6020    12.3530 os        13 MOL      -0.430600
     86 O15         12.3820     2.1090    15.3420 os        13 MOL      -0.430600
     87 O16         13.0360     3.5820    18.3710 os        13 MOL      -0.425600
     88 H253         4.9690    -4.3850    -7.7020 ha        13 MOL       0.163667
     89 H254         8.7310    -6.2300    -7.8950 ha        13 MOL       0.163667
     90 H255         6.3330    -5.9820   -11.3380 ha        13 MOL       0.163667
     91 H250         7.3780    -7.6070   -11.7930 hn        13 MOL       0.311500
     92 H251         8.9930    -4.6040    -6.4520 hn        13 MOL       0.311500
     93 H5           9.7540    -4.3790    -4.3060 h1        13 MOL       0.064533
     94 H6           8.3350    -5.3630    -3.8060 h1        13 MOL       0.064533
     95 H7           9.8880    -7.6910   -12.9460 h1        13 MOL       0.064533
     96 H8           8.6860    -9.0060   -13.1360 h1        13 MOL       0.064533
     97 H252         4.1020    -3.1110    -9.0260 hn        13 MOL       0.311500
     98 H10          1.7250    -3.8690   -10.5190 h1        13 MOL       0.064533
     99 H11          2.6260    -2.5040   -11.2340 h1        13 MOL       0.064533
    100 H12          2.4990    -1.2510    -9.0740 hc        13 MOL       0.046033
    101 H13          1.5930    -2.6150    -8.3380 hc        13 MOL       0.046033
    102 H14         -0.2350    -2.3010   -10.0020 hc        13 MOL       0.043367
    103 H15          0.6690    -0.9350   -10.7390 hc        13 MOL       0.043367
    104 H16          0.6290     0.2680    -8.5470 hc        13 MOL       0.040867
    105 H17         -0.2730    -1.0980    -7.8140 hc        13 MOL       0.040867
    106 H18         -2.1550    -0.7160    -9.4100 hc        13 MOL       0.040700
    107 H19         -1.2530     0.6550   -10.1440 hc        13 MOL       0.040700
    108 H20         -1.2150     1.8110    -7.9300 hc        13 MOL       0.040033
    109 H21         -2.1150     0.4410    -7.2000 hc        13 MOL       0.040033
    110 H22         -4.0200     0.8620    -8.7540 hc        13 MOL       0.040367
    111 H23         -3.1190     2.2340    -9.4850 hc        13 MOL       0.040367
    112 H24         -3.0400     3.3650    -7.2610 hc        13 MOL       0.039700
    113 H25         -3.9410     1.9930    -6.5310 hc        13 MOL       0.039700
    114 H26         -5.8640     2.4420    -8.0650 hc        13 MOL       0.041700
    115 H27         -4.9640     3.8130    -8.7920 hc        13 MOL       0.041700
    116 H28         -4.8800     4.9390    -6.5670 hc        13 MOL       0.040533
    117 H29         -5.7820     3.5680    -5.8400 hc        13 MOL       0.040533
    118 H30         -7.6930     4.0050    -7.3860 hc        13 MOL       0.055200
    119 H31         -6.7900     5.3770    -8.1120 hc        13 MOL       0.055200
    120 H32         -6.7290     6.5160    -5.8840 h1        13 MOL       0.027533
    121 H33         -7.6330     5.1440    -5.1580 h1        13 MOL       0.027533
    122 H34         -8.4220     7.9640    -5.2500 h1        13 MOL       0.040033
    123 H35         -9.3340     6.5920    -4.5300 h1        13 MOL       0.040033
    124 H36        -11.2540     7.0600    -6.0740 h1        13 MOL       0.042367
    125 H37        -10.3410     8.4310    -6.7930 h1        13 MOL       0.042367
    126 H38        -12.9430     8.5180    -5.4620 h1        13 MOL       0.042033
    127 H39        -12.0210     9.8880    -6.1750 h1        13 MOL       0.042033
    128 H40        -11.9660    11.0200    -3.9260 h1        13 MOL       0.042700
    129 H41        -12.8880     9.6540    -3.2150 h1        13 MOL       0.042700
    130 H42        -13.5530    12.4530    -3.2200 h1        13 MOL       0.043367
    131 H43        -14.4840    11.0890    -2.5160 h1        13 MOL       0.043367
    132 H44        -16.4900    11.7410    -3.9080 h1        13 MOL       0.042033
    133 H45        -15.5530    13.1060    -4.6120 h1        13 MOL       0.042033
    134 H46        -18.0750    13.2720    -3.0870 h1        13 MOL       0.033033
    135 H47        -17.1290    14.6290    -3.7820 h1        13 MOL       0.033033
    136 H51          9.6370   -10.1050   -11.0560 hc        13 MOL       0.046033
    137 H52         10.8080    -8.7550   -10.9060 hc        13 MOL       0.046033
    138 H53         11.7510    -9.2820   -13.1270 hc        13 MOL       0.043367
    139 H54         10.6200   -10.6670   -13.2920 hc        13 MOL       0.043367
    140 H55         11.5970   -11.6760   -11.2100 hc        13 MOL       0.040867
    141 H56         12.6980   -10.2680   -11.0640 hc        13 MOL       0.040867
    142 H57         13.7150   -10.8100   -13.2650 hc        13 MOL       0.040700
    143 H58         12.6390   -12.2410   -13.4190 hc        13 MOL       0.040700
    144 H59         13.6200   -13.1780   -11.3110 hc        13 MOL       0.040033
    145 H60         14.6720   -11.7300   -11.1710 hc        13 MOL       0.040033
    146 H61         15.7220   -12.2680   -13.3590 hc        13 MOL       0.040367
    147 H62         14.6880   -13.7300   -13.5020 hc        13 MOL       0.040367
    148 H63         15.6780   -14.6190   -11.3820 hc        13 MOL       0.039700
    149 H64         16.6970   -13.1450   -11.2500 hc        13 MOL       0.039700
    150 H65         17.7690   -13.6830   -13.4350 hc        13 MOL       0.041700
    151 H66         16.7640   -15.1640   -13.5680 hc        13 MOL       0.041700
    152 H67         17.7770   -16.0300   -11.4530 hc        13 MOL       0.040533
    153 H68         18.7750   -14.5420   -11.3290 hc        13 MOL       0.040533
    154 H69         19.8280   -15.0620   -13.5280 hc        13 MOL       0.055200
    155 H70         18.8360   -16.5540   -13.6500 hc        13 MOL       0.055200
    156 H71         19.8860   -17.4180   -11.5500 h1        13 MOL       0.027533
    157 H72         20.8760   -15.9220   -11.4340 h1        13 MOL       0.027533
    158 H73         21.8500   -18.6800   -11.6920 h1        13 MOL       0.040033
    159 H74         22.8390   -17.1820   -11.6020 h1        13 MOL       0.040033
    160 H75         23.7750   -17.6680   -13.8170 h1        13 MOL       0.042367
    161 H76         22.7750   -19.1700   -13.8990 h1        13 MOL       0.042367
    162 H77         25.6870   -18.9850   -13.7550 h1        13 MOL       0.042033
    163 H78         24.6660   -20.4710   -13.8120 h1        13 MOL       0.042033
    164 H79         25.3780   -21.0510   -11.5890 h1        13 MOL       0.042700
    165 H80         26.4110   -19.5700   -11.5320 h1        13 MOL       0.042700
    166 H81         27.2650   -22.3760   -11.5730 h1        13 MOL       0.043367
    167 H82         28.3250   -20.9120   -11.5380 h1        13 MOL       0.043367
    168 H83         29.0920   -21.4280   -13.7990 h1        13 MOL       0.042033
    169 H84         28.0300   -22.8790   -13.8260 h1        13 MOL       0.042033
    170 H85         30.9510   -22.8120   -14.0510 h1        13 MOL       0.033033
    171 H86         29.8700   -24.2520   -14.0660 h1        13 MOL       0.033033
    172 H90          6.9170    -3.3410    -3.7230 hc        13 MOL       0.046033
    173 H91          8.3200    -2.3310    -4.2320 hc        13 MOL       0.046033
    174 H92          9.6400    -3.1900    -2.3130 hc        13 MOL       0.043367
    175 H93          8.2520    -4.1970    -1.7940 hc        13 MOL       0.043367
    176 H94          6.9170    -2.1420    -1.3750 hc        13 MOL       0.040867
    177 H95          8.3070    -1.1350    -1.9100 hc        13 MOL       0.040867
    178 H96          9.7510    -2.1980    -0.1830 hc        13 MOL       0.040700
    179 H97          8.3720    -3.2060     0.3600 hc        13 MOL       0.040700
    180 H98          7.1430    -1.1550     1.0550 hc        13 MOL       0.040033
    181 H99          8.5240    -0.1440     0.5010 hc        13 MOL       0.040033
    182 H100        10.0490    -1.3780     2.0320 hc        13 MOL       0.040367
    183 H101         8.6800    -2.3900     2.5930 hc        13 MOL       0.040367
    184 H102         7.5490    -0.3640     3.4950 hc        13 MOL       0.039700
    185 H103         8.9200     0.6520     2.9260 hc        13 MOL       0.039700
    186 H104        10.5010    -0.7010     4.3030 hc        13 MOL       0.041700
    187 H105         9.1410    -1.7180     4.8770 hc        13 MOL       0.041700
    188 H106         8.0990     0.2760     5.9490 hc        13 MOL       0.040533
    189 H107         9.4580     1.2980     5.3670 hc        13 MOL       0.040533
    190 H108        11.0750    -0.1410     6.6020 hc        13 MOL       0.055200
    191 H109         9.7240    -1.1660     7.1890 hc        13 MOL       0.055200
    192 H110         8.7480     0.8010     8.3790 h1        13 MOL       0.027533
    193 H111        10.0970     1.8290     7.7830 h1        13 MOL       0.027533
    194 H112         9.4330     1.1850    10.6110 h1        13 MOL       0.040033
    195 H113        10.7560     2.2320     9.9920 h1        13 MOL       0.040033
    196 H114        12.4170     0.7520    10.9890 h1        13 MOL       0.042367
    197 H115        11.1010    -0.3080    11.6280 h1        13 MOL       0.042367
    198 H116        13.0000     1.4100    13.1090 h1        13 MOL       0.042033
    199 H117        11.7260     0.3320    13.8000 h1        13 MOL       0.042033
    200 H118        10.5260     2.2700    14.5910 h1        13 MOL       0.042700
    201 H119        11.7920     3.3390    13.8760 h1        13 MOL       0.042700
    202 H120        11.1540     2.9700    16.7220 h1        13 MOL       0.043367
    203 H121        12.3760     4.0510    15.9460 h1        13 MOL       0.043367
    204 H122        14.1740     2.7350    16.9130 h1        13 MOL       0.042033
    205 H123        12.9770     1.6540    17.7080 h1        13 MOL       0.042033
    206 H124        15.0130     3.3960    18.9520 h1        13 MOL       0.033033
    207 H125        13.8500     2.3120    19.7960 h1        13 MOL       0.033033
    208 N3          32.3710   -25.0260   -13.5010 n         13 MOL      -0.572233
    209 H126        30.9650   -25.0900   -11.9890 h1        13 MOL       0.076367
    210 H127        32.0460   -23.6750   -11.9710 h1        13 MOL       0.076367
    211 C69         33.3860   -25.7240   -12.9930 c         13 MOL       0.658100
    212 H128        32.2420   -24.9840   -14.4830 hn        13 MOL       0.307500
    213 O17         33.5410   -25.7730   -11.7680 o         13 MOL      -0.605100
    214 C70         34.3490   -26.4590   -13.9030 c3        13 MOL      -0.159067
    215 C71         35.5260   -27.0400   -13.0810 c3        13 MOL       0.141733
    216 H129        34.7010   -25.7720   -14.6880 hc        13 MOL       0.076867
    217 H130        33.8010   -27.2700   -14.4100 hc        13 MOL       0.076867
    218 O18         36.4410   -27.7620   -13.9320 os        13 MOL      -0.436267
    219 H131        35.1230   -27.7230   -12.3200 h1        13 MOL       0.048200
    220 H132        36.0590   -26.2180   -12.5830 h1        13 MOL       0.048200
    221 C72         37.4890   -28.2900   -13.1160 c3        13 MOL       0.130067
    222 C73         38.4720   -29.1150   -13.9820 c3        13 MOL       0.129067
    223 H133        37.0490   -28.9440   -12.3460 h1        13 MOL       0.044533
    224 H134        38.0260   -27.4620   -12.6280 h1        13 MOL       0.044533
    225 O19         39.5010   -29.6540   -13.1540 os        13 MOL      -0.428600
    226 H135        38.9210   -28.4740   -14.7570 h1        13 MOL       0.042867
    227 H136        37.9260   -29.9420   -14.4620 h1        13 MOL       0.042867
    228 C74         40.3630   -30.4550   -13.9580 c3        13 MOL       0.129733
    229 C75         41.4540   -31.0980   -13.0620 c3        13 MOL       0.129067
    230 H137        40.8300   -29.8310   -14.7370 h1        13 MOL       0.041867
    231 H138        39.7690   -31.2520   -14.4330 h1        13 MOL       0.041867
    232 O20         42.3070   -31.9400   -13.8420 os        13 MOL      -0.428267
    233 H139        42.0550   -30.3120   -12.5780 h1        13 MOL       0.043700
    234 H140        40.9650   -31.7110   -12.2890 h1        13 MOL       0.043700
    235 C76         43.2420   -32.5590   -12.9560 c3        13 MOL       0.119733
    236 C77         44.1280   -33.5380   -13.7070 c3        13 MOL       0.128733
    237 H141        42.6840   -33.1080   -12.1820 h1        13 MOL       0.041367
    238 H142        43.8710   -31.7900   -12.4780 h1        13 MOL       0.041367
    239 O21         44.9770   -34.1100   -12.7340 os        13 MOL      -0.433933
    240 H143        43.5340   -34.3240   -14.1790 h1        13 MOL       0.051867
    241 H144        44.7070   -32.9990   -14.4730 h1        13 MOL       0.051867
    242 C78         45.9030   -35.0010   -13.3200 c3        13 MOL       0.106733
    243 C79         46.7940   -35.5880   -12.2000 c3        13 MOL       0.208800
    244 H145        45.3570   -35.8110   -13.8260 h1        13 MOL       0.051867
    245 H146        46.5260   -34.4610   -14.0510 h1        13 MOL       0.051867
    246 N4          47.7270   -36.5450   -12.7850 nh        13 MOL      -0.738600
    247 H147        47.3260   -34.7910   -11.6740 h1        13 MOL       0.076867
    248 H148        46.1380   -36.1160   -11.4940 h1        13 MOL       0.076867
    249 H149        47.3050   -37.3440   -13.1910 hn        13 MOL       0.446467
    250 N5          14.8350     4.1440    21.5400 n         13 MOL      -0.572233
    251 H150        12.8290     4.2860    20.9170 h1        13 MOL       0.076367
    252 H151        13.9720     5.3770    20.0640 h1        13 MOL       0.076367
    253 C80         14.6890     4.7510    22.7200 c         13 MOL       0.658100
    254 H152        15.7350     3.6970    21.3200 hn        13 MOL       0.307500
    255 O22         13.6590     5.3930    22.9530 o         13 MOL      -0.605100
    256 C81         15.7830     4.6700    23.7720 c3        13 MOL      -0.159067
    257 C82         15.2990     5.2470    25.1200 c3        13 MOL       0.141733
    258 H153        16.6530     5.2430    23.4140 hc        13 MOL       0.076867
    259 H154        16.1100     3.6240    23.8740 hc        13 MOL       0.076867
    260 O23         16.3710     5.1820    26.0880 os        13 MOL      -0.436267
    261 H155        14.9990     6.2950    24.9750 h1        13 MOL       0.048200
    262 H156        14.4360     4.6670    25.4770 h1        13 MOL       0.048200
    263 C83         15.9430     5.7050    27.2990 c3        13 MOL       0.130067
    264 C84         17.0770     5.6390    28.2410 c3        13 MOL       0.129067
    265 H157        15.1020     5.1160    27.6920 h1        13 MOL       0.044533
    266 H158        15.6350     6.7530    27.1730 h1        13 MOL       0.044533
    267 O24         16.5810     6.1670    29.4080 os        13 MOL      -0.428600
    268 H159        17.9220     6.2410    27.8690 h1        13 MOL       0.042867
    269 H160        17.3940     4.5940    28.3900 h1        13 MOL       0.042867
    270 C85         17.5220     6.1700    30.3400 c3        13 MOL       0.129733
    271 C86         16.8710     6.7140    31.4840 c3        13 MOL       0.129067
    272 H161        18.3700     6.8040    30.0470 h1        13 MOL       0.041867
    273 H162        17.8680     5.1490    30.5560 h1        13 MOL       0.041867
    274 O25         17.8560     6.6870    32.3790 os        13 MOL      -0.428267
    275 H163        16.5260     7.7400    31.2890 h1        13 MOL       0.043700
    276 H164        16.0300     6.0740    31.7880 h1        13 MOL       0.043700
    277 C87         17.4630     7.1290    33.5760 c3        13 MOL       0.119733
    278 C88         18.6350     6.9950    34.3520 c3        13 MOL       0.128733
    279 H165        17.1420     8.1790    33.5370 h1        13 MOL       0.041367
    280 H166        16.6650     6.5050    33.9960 h1        13 MOL       0.041367
    281 O26         18.1660     7.4040    35.5100 os        13 MOL      -0.433933
    282 H167        18.9700     5.9600    34.4030 h1        13 MOL       0.051867
    283 H168        19.4280     7.6430    33.9520 h1        13 MOL       0.051867
    284 C89         19.1080     7.5010    36.4970 c3        13 MOL       0.106733
    285 C90         18.3070     7.9060    37.6880 c3        13 MOL       0.208800
    286 H169        19.5880     6.5250    36.6710 h1        13 MOL       0.051867
    287 H170        19.8660     8.2610    36.2480 h1        13 MOL       0.051867
    288 N6          19.1950     7.9970    38.8030 nh        13 MOL      -0.738600
    289 H171        17.7880     8.8380    37.4970 h1        13 MOL       0.076867
    290 H172        17.5720     7.1130    37.8690 h1        13 MOL       0.076867
    291 H173        19.6550     7.1550    39.0370 hn        13 MOL       0.446467
    292 N7         -18.9870    15.6480    -2.0210 n         13 MOL      -0.572233
    293 H174       -16.9590    15.6930    -1.4630 h1        13 MOL       0.076367
    294 H175       -17.9030    14.3480    -0.7700 h1        13 MOL       0.076367
    295 C91        -19.6020    16.4940    -1.1590 c         13 MOL       0.658100
    296 H176       -19.3960    15.5010    -2.9140 hn        13 MOL       0.307500
    297 O27        -19.1430    16.7200    -0.0290 o         13 MOL      -0.605100
    298 C92        -20.8910    17.1990    -1.5710 c3        13 MOL      -0.159067
    299 C93        -21.4480    18.0610    -0.3990 c3        13 MOL       0.141733
    300 H177       -21.6250    16.4430    -1.8920 hc        13 MOL       0.076867
    301 H178       -20.6820    17.8300    -2.4490 hc        13 MOL       0.076867
    302 O28        -22.6650    18.7420    -0.7890 os        13 MOL      -0.436267
    303 H179       -21.6540    17.4080     0.4610 h1        13 MOL       0.048200
    304 H180       -20.6920    18.8070    -0.1130 h1        13 MOL       0.048200
    305 C94        -23.1300    19.5140     0.3100 c3        13 MOL       0.130067
    306 C95        -24.3860    20.2450    -0.0840 c3        13 MOL       0.129067
    307 H181       -22.3610    20.2460     0.5970 h1        13 MOL       0.044533
    308 H182       -23.3440    18.8530     1.1630 h1        13 MOL       0.044533
    309 O29        -24.7900    20.9890     1.0400 os        13 MOL      -0.428600
    310 H183       -24.1780    20.9200    -0.9300 h1        13 MOL       0.042867
    311 H184       -25.1720    19.5260    -0.3660 h1        13 MOL       0.042867
    312 C96        -25.9050    21.6830     0.7380 c3        13 MOL       0.129733
    313 C97        -26.2730    22.4250     1.9300 c3        13 MOL       0.129067
    314 H185       -26.7220    21.0020     0.4620 h1        13 MOL       0.041867
    315 H186       -25.7100    22.3830    -0.0860 h1        13 MOL       0.041867
    316 O30        -27.3700    23.0660     1.5010 os        13 MOL      -0.428267
    317 H187       -26.5040    21.7460     2.7660 h1        13 MOL       0.043700
    318 H188       -25.4810    23.1350     2.2150 h1        13 MOL       0.043700
    319 C98        -27.9140    23.8390     2.4470 c3        13 MOL       0.119733
    320 C99        -29.0330    24.4130     1.7560 c3        13 MOL       0.128733
    321 H189       -27.2200    24.6270     2.7750 h1        13 MOL       0.041367
    322 H190       -28.2540    23.2440     3.3070 h1        13 MOL       0.041367
    323 O31        -29.5400    25.1490     2.6720 os        13 MOL      -0.433933
    324 H191       -28.6980    25.0130     0.9060 h1        13 MOL       0.051867
    325 H192       -29.7330    23.6380     1.4370 h1        13 MOL       0.051867
    326 C100       -30.6410    25.8400     2.3050 c3        13 MOL       0.106733
    327 C101       -30.8510    26.4830     3.6150 c3        13 MOL       0.208800
    328 H193       -30.4250    26.5690     1.4930 h1        13 MOL       0.051867
    329 H194       -31.4770    25.1690     2.0180 h1        13 MOL       0.051867
    330 N8         -31.9350    27.3100     3.6570 nh        13 MOL      -0.738600
    331 H195       -30.9720    25.7000     4.3790 h1        13 MOL       0.076867
    332 H196       -29.9510    27.0620     3.8740 h1        13 MOL       0.076867
    333 H197       -32.4410    27.4290     2.8160 hn        13 MOL       0.446467
    334 C102        49.1590   -36.5420   -12.6710 ca        13 MOL       0.308267
    335 C103        49.7170   -37.8530   -12.8990 ca        13 MOL      -0.237667
    336 H198        49.0930   -38.6550   -13.1260 ha        13 MOL       0.154667
    337 C104        51.0090   -38.0420   -12.8230 ca        13 MOL       0.007333
    338 H199        51.4330   -39.0010   -12.9900 ha        13 MOL       0.178000
    339 C105        51.8350   -36.9550   -12.5090 ca        13 MOL      -0.255200
    340 C106        51.3870   -35.7620   -12.2910 ca        13 MOL       0.038667
    341 H200        52.0640   -34.9720   -12.0630 ha        13 MOL       0.199000
    342 C107        50.0220   -35.5160   -12.3850 ca        13 MOL      -0.281867
    343 C108       -32.3800    27.9970     4.8140 ca        13 MOL       0.308267
    344 C109       -31.7990    28.0120     6.2720 ca        13 MOL      -0.281867
    345 C117       -32.4030    28.7360     7.1690 ca        13 MOL       0.038667
    346 H201       -32.0420    28.7750     8.1710 ha        13 MOL       0.199000
    347 C118       -33.5020    29.4480     6.8250 ca        13 MOL      -0.255200
    348 C119       -34.0290    29.4690     5.6140 ca        13 MOL       0.007333
    349 H202       -34.8960    30.0560     5.4240 ha        13 MOL       0.178000
    350 C114       -33.4520    28.7240     4.5840 ca        13 MOL      -0.237667
    351 H203       -33.8720    28.7440     3.6290 ha        13 MOL       0.154667
    352 C111        19.3770     9.1120    39.7080 ca        13 MOL       0.308267
    353 C112        19.9930     8.6990    40.9400 ca        13 MOL      -0.237667
    354 H204        20.2560     7.7010    41.0830 ha        13 MOL       0.154667
    355 C113        20.2280     9.5720    41.8850 ca        13 MOL       0.007333
    356 H205        20.6830     9.2780    42.7920 ha        13 MOL       0.178000
    357 C115        19.8640    10.9110    41.6840 ca        13 MOL      -0.255200
    358 C116        19.3050    11.3370    40.6000 ca        13 MOL       0.038667
    359 H206        19.0550    12.3680    40.4970 ha        13 MOL       0.199000
    360 C110        19.0620    10.4380    39.5640 ca        13 MOL      -0.281867
    361 N9          20.1020    11.6950    42.5850 no        13 MOL       0.327200
    362 O32         19.7590    12.9640    42.5490 o         13 MOL      -0.208167
    363 O33         20.6500    11.2700    43.5200 o         13 MOL      -0.208167
    364 N10         18.5690    11.0400    38.4950 no        13 MOL       0.321533
    365 O34         18.1210    12.2590    38.5580 o         13 MOL      -0.208667
    366 O35         18.6870    10.5500    37.4460 o         13 MOL      -0.208667
    367 N11         53.0330   -37.1530   -12.4480 no        13 MOL       0.327200
    368 O36         53.8870   -36.2190   -12.1110 o         13 MOL      -0.208167
    369 O37         53.4090   -38.2300   -12.6900 o         13 MOL      -0.208167
    370 N12         49.7550   -34.2170   -12.2180 no        13 MOL       0.321533
    371 O38         48.6900   -33.6950   -12.7450 o         13 MOL      -0.208667
    372 O39         50.5700   -33.4930   -11.7860 o         13 MOL      -0.208667
    373 N13        -34.0470    30.1170     7.6890 no        13 MOL       0.327200
    374 O40        -35.0790    30.7780     7.3420 o         13 MOL      -0.208167
    375 O41        -33.6680    30.1740     8.7970 o         13 MOL      -0.208167
    376 N14        -30.7170    27.3620     6.7720 no        13 MOL       0.321533
    377 O42        -30.3850    27.5030     8.0270 o         13 MOL      -0.208667
    378 O43        -30.0650    26.6700     6.1090 o         13 MOL      -0.208667
@<TRIPOS>BOND
     1     1    10 1   
     2     1    13 1   
     3     1    91 1   
     4     2    11 1   
     5     2    12 1   
     6     2    92 1   
     7     3    14 1   
     8     3    15 1   
     9     3    97 1   
    10     4     5 ar  
    11     4     9 ar  
    12     4    15 1   
    13     5     6 ar  
    14     5    88 1   
    15     6     7 ar  
    16     6    11 1   
    17     7     8 ar  
    18     7    89 1   
    19     8     9 ar  
    20     8    10 1   
    21     9    90 1   
    22    10    73 2   
    23    11    74 2   
    24    12    54 1   
    25    12    93 1   
    26    12    94 1   
    27    13    35 1   
    28    13    95 1   
    29    13    96 1   
    30    14    16 1   
    31    14    98 1   
    32    14    99 1   
    33    15    75 2   
    34    16    17 1   
    35    16   100 1   
    36    16   101 1   
    37    17    18 1   
    38    17   102 1   
    39    17   103 1   
    40    18    19 1   
    41    18   104 1   
    42    18   105 1   
    43    19    20 1   
    44    19   106 1   
    45    19   107 1   
    46    20    21 1   
    47    20   108 1   
    48    20   109 1   
    49    21    22 1   
    50    21   110 1   
    51    21   111 1   
    52    22    23 1   
    53    22   112 1   
    54    22   113 1   
    55    23    24 1   
    56    23   114 1   
    57    23   115 1   
    58    24    25 1   
    59    24   116 1   
    60    24   117 1   
    61    25    26 1   
    62    25   118 1   
    63    25   119 1   
    64    26    76 1   
    65    26   120 1   
    66    26   121 1   
    67    27    28 1   
    68    27    76 1   
    69    27   122 1   
    70    27   123 1   
    71    28    77 1   
    72    28   124 1   
    73    28   125 1   
    74    29    30 1   
    75    29    77 1   
    76    29   126 1   
    77    29   127 1   
    78    30    78 1   
    79    30   128 1   
    80    30   129 1   
    81    31    32 1   
    82    31    78 1   
    83    31   130 1   
    84    31   131 1   
    85    32    79 1   
    86    32   132 1   
    87    32   133 1   
    88    33    34 1   
    89    33    79 1   
    90    33   134 1   
    91    33   135 1   
    92    34   292 1   
    93    34   293 1   
    94    34   294 1   
    95    35    36 1   
    96    35   136 1   
    97    35   137 1   
    98    36    37 1   
    99    36   138 1   
   100    36   139 1   
   101    37    38 1   
   102    37   140 1   
   103    37   141 1   
   104    38    39 1   
   105    38   142 1   
   106    38   143 1   
   107    39    40 1   
   108    39   144 1   
   109    39   145 1   
   110    40    41 1   
   111    40   146 1   
   112    40   147 1   
   113    41    42 1   
   114    41   148 1   
   115    41   149 1   
   116    42    43 1   
   117    42   150 1   
   118    42   151 1   
   119    43    44 1   
   120    43   152 1   
   121    43   153 1   
   122    44    45 1   
   123    44   154 1   
   124    44   155 1   
   125    45    80 1   
   126    45   156 1   
   127    45   157 1   
   128    46    47 1   
   129    46    80 1   
   130    46   158 1   
   131    46   159 1   
   132    47    81 1   
   133    47   160 1   
   134    47   161 1   
   135    48    49 1   
   136    48    81 1   
   137    48   162 1   
   138    48   163 1   
   139    49    82 1   
   140    49   164 1   
   141    49   165 1   
   142    50    51 1   
   143    50    82 1   
   144    50   166 1   
   145    50   167 1   
   146    51    83 1   
   147    51   168 1   
   148    51   169 1   
   149    52    53 1   
   150    52    83 1   
   151    52   170 1   
   152    52   171 1   
   153    53   208 1   
   154    53   209 1   
   155    53   210 1   
   156    54    55 1   
   157    54   172 1   
   158    54   173 1   
   159    55    56 1   
   160    55   174 1   
   161    55   175 1   
   162    56    57 1   
   163    56   176 1   
   164    56   177 1   
   165    57    58 1   
   166    57   178 1   
   167    57   179 1   
   168    58    59 1   
   169    58   180 1   
   170    58   181 1   
   171    59    60 1   
   172    59   182 1   
   173    59   183 1   
   174    60    61 1   
   175    60   184 1   
   176    60   185 1   
   177    61    62 1   
   178    61   186 1   
   179    61   187 1   
   180    62    63 1   
   181    62   188 1   
   182    62   189 1   
   183    63    64 1   
   184    63   190 1   
   185    63   191 1   
   186    64    84 1   
   187    64   192 1   
   188    64   193 1   
   189    65    66 1   
   190    65    84 1   
   191    65   194 1   
   192    65   195 1   
   193    66    85 1   
   194    66   196 1   
   195    66   197 1   
   196    67    68 1   
   197    67    85 1   
   198    67   198 1   
   199    67   199 1   
   200    68    86 1   
   201    68   200 1   
   202    68   201 1   
   203    69    70 1   
   204    69    86 1   
   205    69   202 1   
   206    69   203 1   
   207    70    87 1   
   208    70   204 1   
   209    70   205 1   
   210    71    72 1   
   211    71    87 1   
   212    71   206 1   
   213    71   207 1   
   214    72   250 1   
   215    72   251 1   
   216    72   252 1   
   217   208   211 1   
   218   208   212 1   
   219   211   213 2   
   220   211   214 1   
   221   214   215 1   
   222   214   216 1   
   223   214   217 1   
   224   215   218 1   
   225   215   219 1   
   226   215   220 1   
   227   218   221 1   
   228   221   222 1   
   229   221   223 1   
   230   221   224 1   
   231   222   225 1   
   232   222   226 1   
   233   222   227 1   
   234   225   228 1   
   235   228   229 1   
   236   228   230 1   
   237   228   231 1   
   238   229   232 1   
   239   229   233 1   
   240   229   234 1   
   241   232   235 1   
   242   235   236 1   
   243   235   237 1   
   244   235   238 1   
   245   236   239 1   
   246   236   240 1   
   247   236   241 1   
   248   239   242 1   
   249   242   243 1   
   250   242   244 1   
   251   242   245 1   
   252   243   246 1   
   253   243   247 1   
   254   243   248 1   
   255   246   249 1   
   256   246   334 1   
   257   250   253 1   
   258   250   254 1   
   259   253   255 2   
   260   253   256 1   
   261   256   257 1   
   262   256   258 1   
   263   256   259 1   
   264   257   260 1   
   265   257   261 1   
   266   257   262 1   
   267   260   263 1   
   268   263   264 1   
   269   263   265 1   
   270   263   266 1   
   271   264   267 1   
   272   264   268 1   
   273   264   269 1   
   274   267   270 1   
   275   270   271 1   
   276   270   272 1   
   277   270   273 1   
   278   271   274 1   
   279   271   275 1   
   280   271   276 1   
   281   274   277 1   
   282   277   278 1   
   283   277   279 1   
   284   277   280 1   
   285   278   281 1   
   286   278   282 1   
   287   278   283 1   
   288   281   284 1   
   289   284   285 1   
   290   284   286 1   
   291   284   287 1   
   292   285   288 1   
   293   285   289 1   
   294   285   290 1   
   295   288   291 1   
   296   288   352 1   
   297   292   295 1   
   298   292   296 1   
   299   295   297 2   
   300   295   298 1   
   301   298   299 1   
   302   298   300 1   
   303   298   301 1   
   304   299   302 1   
   305   299   303 1   
   306   299   304 1   
   307   302   305 1   
   308   305   306 1   
   309   305   307 1   
   310   305   308 1   
   311   306   309 1   
   312   306   310 1   
   313   306   311 1   
   314   309   312 1   
   315   312   313 1   
   316   312   314 1   
   317   312   315 1   
   318   313   316 1   
   319   313   317 1   
   320   313   318 1   
   321   316   319 1   
   322   319   320 1   
   323   319   321 1   
   324   319   322 1   
   325   320   323 1   
   326   320   324 1   
   327   320   325 1   
   328   323   326 1   
   329   326   327 1   
   330   326   328 1   
   331   326   329 1   
   332   327   330 1   
   333   327   331 1   
   334   327   332 1   
   335   330   333 1   
   336   330   343 1   
   337   334   335 ar  
   338   334   342 ar  
   339   335   336 1   
   340   335   337 ar  
   341   337   338 1   
   342   337   339 ar  
   343   339   340 ar  
   344   339   367 1   
   345   340   341 1   
   346   340   342 ar  
   347   342   370 1   
   348   343   344 ar  
   349   343   350 ar  
   350   344   345 ar  
   351   344   376 1   
   352   345   346 1   
   353   345   347 ar  
   354   347   348 ar  
   355   347   373 1   
   356   348   349 1   
   357   348   350 ar  
   358   350   351 1   
   359   352   353 ar  
   360   352   360 ar  
   361   353   354 1   
   362   353   355 ar  
   363   355   356 1   
   364   355   357 ar  
   365   357   358 ar  
   366   357   361 1   
   367   358   359 1   
   368   358   360 ar  
   369   360   364 1   
   370   361   362 1   
   371   361   363 1   
   372   364   365 1   
   373   364   366 1   
   374   367   368 1   
   375   367   369 1   
   376   370   371 1   
   377   370   372 1   
   378   373   374 1   
   379   373   375 1   
   380   376   377 1   
   381   376   378 1   
@<TRIPOS>SUBSTRUCTURE
     1 MOL         1 TEMP              0 ****  ****    0 ROOT
