@<TRIPOS>MOLECULE
MOL
  219   219     1     0     0
SMALL
bcc


@<TRIPOS>ATOM
      1 N            9.7420    -9.9900    -8.1660 n         12 MOL      -0.562567
      2 N1           6.6520    -7.1960    -3.3960 n         12 MOL      -0.562567
      3 N2           3.3440    -6.9980    -7.2630 n         12 MOL      -0.562567
      4 C            5.2640    -8.4640    -7.2470 ca        12 MOL      -0.155267
      5 C1           5.5830    -8.2080    -5.9050 ca        12 MOL      -0.039000
      6 C2           6.8220    -8.5820    -5.3670 ca        12 MOL      -0.155267
      7 C3           7.7480    -9.2320    -6.1920 ca        12 MOL      -0.039000
      8 C4           7.4580    -9.4990    -7.5410 ca        12 MOL      -0.155267
      9 C5           6.2070    -9.1190    -8.0480 ca        12 MOL      -0.039000
     10 C6           8.4490   -10.1940    -8.4430 c         12 MOL       0.667367
     11 C7           7.1420    -8.3280    -3.9150 c         12 MOL       0.667367
     12 C8           6.7600    -6.8350    -1.9890 c3        12 MOL       0.083000
     13 C9          10.7640   -10.5940    -8.9520 c3        12 MOL       0.083000
     14 C10          2.0790    -6.5320    -7.7340 c3        12 MOL       0.083000
     15 C11          3.9290    -8.0610    -7.8260 c         12 MOL       0.667367
     16 C12          1.4590    -5.6060    -6.6910 c3        12 MOL      -0.105400
     17 C13          0.1150    -5.1070    -7.2000 c3        12 MOL      -0.077400
     18 C14         -0.4890    -4.1850    -6.1450 c3        12 MOL      -0.078733
     19 C15         -1.8350    -3.6740    -6.6430 c3        12 MOL      -0.079400
     20 C16         -2.4370    -2.7520    -5.5880 c3        12 MOL      -0.078733
     21 C17         -3.7760    -2.2440    -6.1040 c3        12 MOL      -0.079400
     22 C18         -4.3990    -1.3140    -5.0680 c3        12 MOL      -0.079400
     23 C19         -5.7330    -0.8160    -5.6200 c3        12 MOL      -0.078400
     24 C20         -6.3950     0.1260    -4.6170 c3        12 MOL      -0.078400
     25 C21         -7.7170     0.6020    -5.2200 c3        12 MOL      -0.084400
     26 C22         -8.4190     1.5560    -4.2530 c3        12 MOL       0.133400
     27 C23        -10.3060     2.8510    -4.0250 c3        12 MOL       0.128400
     28 C24        -11.5400     3.2530    -4.7140 c3        12 MOL       0.130400
     29 C25        -13.2600     4.5750    -4.3110 c3        12 MOL       0.130400
     30 C26        -13.7060     5.4290    -3.2720 c3        12 MOL       0.129400
     31 C27        -15.4540     6.7310    -2.9620 c3        12 MOL       0.130400
     32 C28        -16.6100     7.0690    -3.7280 c3        12 MOL       0.128400
     33 C29        -18.4260     8.3230    -3.5510 c3        12 MOL       0.094400
     34 C30        -19.0300     9.2230    -2.5510 c3        12 MOL       0.125400
     35 C31          8.1710    -6.8130    -1.3870 c3        12 MOL      -0.105400
     36 C32          7.9150    -6.3980     0.0630 c3        12 MOL      -0.077400
     37 C33          9.1730    -6.2850     0.9120 c3        12 MOL      -0.078733
     38 C34          8.6600    -5.8350     2.2890 c3        12 MOL      -0.079400
     39 C35          9.7680    -5.6390     3.3250 c3        12 MOL      -0.078733
     40 C36          9.0490    -5.1720     4.6000 c3        12 MOL      -0.079400
     41 C37         10.0160    -4.9100     5.7560 c3        12 MOL      -0.079400
     42 C38          9.1560    -4.4330     6.9410 c3        12 MOL      -0.078400
     43 C39         10.0070    -4.1180     8.1780 c3        12 MOL      -0.078400
     44 C40          9.0480    -3.6380     9.2840 c3        12 MOL      -0.084400
     45 C41          9.8180    -3.2850    10.5670 c3        12 MOL       0.133400
     46 C42          9.5220    -2.4860    12.7220 c3        12 MOL       0.128400
     47 C43          8.4980    -2.0120    13.6740 c3        12 MOL       0.130400
     48 C44          8.4350    -1.2170    15.7430 c3        12 MOL       0.130400
     49 C45          9.3510    -0.9320    16.7910 c3        12 MOL       0.129400
     50 C46          9.2190    -0.1130    18.8300 c3        12 MOL       0.130400
     51 C47          8.1730     0.3690    19.6750 c3        12 MOL       0.128400
     52 C48          7.9340     1.1970    21.7220 c3        12 MOL       0.094400
     53 C49          8.8020     1.5050    22.8760 c3        12 MOL       0.125400
     54 C50         11.9000   -11.0180    -8.0210 c3        12 MOL      -0.105400
     55 C51         13.0200   -11.6790    -8.8210 c3        12 MOL      -0.077400
     56 C52         14.1110   -12.0930    -7.8340 c3        12 MOL      -0.078733
     57 C53         15.2610   -12.7850    -8.5650 c3        12 MOL      -0.079400
     58 C54         16.2980   -13.1910    -7.5200 c3        12 MOL      -0.078733
     59 C55         17.4620   -13.9140    -8.1910 c3        12 MOL      -0.079400
     60 C56         18.4550   -14.3220    -7.1030 c3        12 MOL      -0.079400
     61 C57         19.6260   -15.0760    -7.7330 c3        12 MOL      -0.078400
     62 C58         20.5930   -15.4990    -6.6250 c3        12 MOL      -0.078400
     63 C59         21.7530   -16.2760    -7.2480 c3        12 MOL      -0.084400
     64 C60         22.7180   -16.7230    -6.1430 c3        12 MOL       0.133400
     65 C61         24.6630   -17.9120    -5.7590 c3        12 MOL       0.128400
     66 C62         25.7170   -18.6860    -6.4410 c3        12 MOL       0.130400
     67 C63         27.5250   -19.8490    -5.9770 c3        12 MOL       0.130400
     68 C64         28.3330   -20.2720    -4.8790 c3        12 MOL       0.129400
     69 C65         30.1650   -21.5270    -4.7480 c3        12 MOL       0.130400
     70 C66         30.9610   -22.2010    -5.7320 c3        12 MOL       0.128400
     71 C67         32.7620   -23.4630    -5.9140 c3        12 MOL       0.094400
     72 C68         33.7980   -24.0530    -5.0420 c3        12 MOL       0.125400
     73 O            8.0730   -10.8730    -9.4000 o         12 MOL      -0.591433
     74 O1           7.8160    -9.1240    -3.2590 o         12 MOL      -0.591433
     75 O2           3.4280    -8.6730    -8.7700 o         12 MOL      -0.591433
     76 O3          -9.6420     1.9820    -4.8570 os        12 MOL      -0.427600
     77 O4         -12.1290     4.1100    -3.8280 os        12 MOL      -0.430600
     78 O5         -14.8400     5.8860    -3.7820 os        12 MOL      -0.430600
     79 O6         -17.2590     7.9090    -2.9510 os        12 MOL      -0.425600
     80 O7         -20.2320     9.6960    -3.0550 oh        12 MOL      -0.592800
     81 O8           8.8740    -2.8320    11.5510 os        12 MOL      -0.427600
     82 O9           9.2220    -1.6860    14.7930 os        12 MOL      -0.430600
     83 O10          8.5460    -0.4550    17.7340 os        12 MOL      -0.430600
     84 O11          8.8110     0.7150    20.7760 os        12 MOL      -0.425600
     85 O12          8.0110     1.9960    23.9030 oh        12 MOL      -0.592800
     86 O13         23.7840   -17.4640    -6.7390 os        12 MOL      -0.427600
     87 O14         26.5580   -19.1240    -5.4380 os        12 MOL      -0.430600
     88 O15         29.2450   -20.9830    -5.5360 os        12 MOL      -0.430600
     89 O16         31.9240   -22.7880    -5.0490 os        12 MOL      -0.425600
     90 O17         34.6960   -24.7520    -5.8420 oh        12 MOL      -0.592800
     91 H253         4.8920    -7.7350    -5.3020 ha        12 MOL       0.162000
     92 H254         8.6590    -9.5200    -5.8030 ha        12 MOL       0.162000
     93 H255         5.9770    -9.3270    -9.0320 ha        12 MOL       0.162000
     94 H250         9.9530    -9.4360    -7.3800 hn        12 MOL       0.303833
     95 H251         6.1560    -6.5960    -3.9990 hn        12 MOL       0.303833
     96 H5           6.1820    -7.5700    -1.4090 h1        12 MOL       0.065200
     97 H6           6.3120    -5.8400    -1.8540 h1        12 MOL       0.065200
     98 H7          11.1510    -9.8640    -9.6770 h1        12 MOL       0.065200
     99 H8          10.3520   -11.4610    -9.4910 h1        12 MOL       0.065200
    100 H252         3.8260    -6.5540    -6.5280 hn        12 MOL       0.303833
    101 H10          1.4250    -7.3930    -7.9320 h1        12 MOL       0.065200
    102 H11          2.2270    -5.9840    -8.6750 h1        12 MOL       0.065200
    103 H12          2.1240    -4.7480    -6.5170 hc        12 MOL       0.044533
    104 H13          1.3130    -6.1560    -5.7500 hc        12 MOL       0.044533
    105 H14         -0.5550    -5.9610    -7.3740 hc        12 MOL       0.043867
    106 H15          0.2590    -4.5550    -8.1390 hc        12 MOL       0.043867
    107 H16          0.1860    -3.3350    -5.9690 hc        12 MOL       0.040700
    108 H17         -0.6290    -4.7420    -5.2070 hc        12 MOL       0.040700
    109 H18         -2.5110    -4.5220    -6.8190 hc        12 MOL       0.040867
    110 H19         -1.6920    -3.1160    -7.5790 hc        12 MOL       0.040867
    111 H20         -1.7620    -1.9020    -5.4110 hc        12 MOL       0.039867
    112 H21         -2.5850    -3.3070    -4.6510 hc        12 MOL       0.039867
    113 H22         -4.4470    -3.0950    -6.2850 hc        12 MOL       0.040533
    114 H23         -3.6200    -1.6930    -7.0420 hc        12 MOL       0.040533
    115 H24         -3.7290    -0.4610    -4.8870 hc        12 MOL       0.039700
    116 H25         -4.5620    -1.8620    -4.1280 hc        12 MOL       0.039700
    117 H26         -6.3940    -1.6740    -5.8070 hc        12 MOL       0.042033
    118 H27         -5.5570    -0.2780    -6.5620 hc        12 MOL       0.042033
    119 H28         -5.7400     0.9890    -4.4310 hc        12 MOL       0.040200
    120 H29         -6.5830    -0.4060    -3.6740 hc        12 MOL       0.040200
    121 H30         -8.3630    -0.2670    -5.4120 hc        12 MOL       0.055200
    122 H31         -7.5150     1.1240    -6.1660 hc        12 MOL       0.055200
    123 H32         -7.7750     2.4280    -4.0630 h1        12 MOL       0.027533
    124 H33         -8.6290     1.0380    -3.3060 h1        12 MOL       0.027533
    125 H34         -9.6910     3.7400    -3.8310 h1        12 MOL       0.039700
    126 H35        -10.5590     2.3580    -3.0770 h1        12 MOL       0.039700
    127 H36        -12.1810     2.3780    -4.9040 h1        12 MOL       0.042700
    128 H37        -11.3030     3.7660    -5.6600 h1        12 MOL       0.042700
    129 H38        -13.9860     3.7680    -4.4830 h1        12 MOL       0.042367
    130 H39        -13.0970     5.1480    -5.2340 h1        12 MOL       0.042367
    131 H40        -12.9810     6.2380    -3.1000 h1        12 MOL       0.042700
    132 H41        -13.8740     4.8580    -2.3470 h1        12 MOL       0.042700
    133 H42        -14.8410     7.6240    -2.7650 h1        12 MOL       0.042700
    134 H43        -15.7420     6.2450    -2.0180 h1        12 MOL       0.042700
    135 H44        -17.2060     6.1670    -3.9260 h1        12 MOL       0.042200
    136 H45        -16.3130     7.5450    -4.6740 h1        12 MOL       0.042200
    137 H46        -19.0900     7.4650    -3.7460 h1        12 MOL       0.033700
    138 H47        -18.2160     8.8630    -4.4880 h1        12 MOL       0.033700
    139 H48        -18.3470    10.0600    -2.3510 h1        12 MOL       0.059367
    140 H49        -19.2070     8.6610    -1.6230 h1        12 MOL       0.059367
    141 H50        -20.0740    10.2150    -3.8840 ho        12 MOL       0.398000
    142 H51          8.8040    -6.0720    -1.8960 hc        12 MOL       0.044533
    143 H52          8.6380    -7.8080    -1.4350 hc        12 MOL       0.044533
    144 H53          7.2460    -7.1370     0.5260 hc        12 MOL       0.043867
    145 H54          7.4170    -5.4180     0.0550 hc        12 MOL       0.043867
    146 H55          9.8510    -5.5340     0.4870 hc        12 MOL       0.040700
    147 H56          9.6830    -7.2560     0.9810 hc        12 MOL       0.040700
    148 H57          7.9550    -6.5890     2.6670 hc        12 MOL       0.040867
    149 H58          8.1310    -4.8790     2.1630 hc        12 MOL       0.040867
    150 H59         10.4750    -4.8690     2.9850 hc        12 MOL       0.039867
    151 H60         10.3000    -6.5840     3.5040 hc        12 MOL       0.039867
    152 H61          8.3280    -5.9430     4.9060 hc        12 MOL       0.040533
    153 H62          8.5090    -4.2410     4.3760 hc        12 MOL       0.040533
    154 H63         10.7350    -4.1270     5.4720 hc        12 MOL       0.039700
    155 H64         10.5540    -5.8330     6.0170 hc        12 MOL       0.039700
    156 H65          8.4290    -5.2180     7.1960 hc        12 MOL       0.042033
    157 H66          8.6160    -3.5230     6.6420 hc        12 MOL       0.042033
    158 H67         10.7290    -3.3250     7.9410 hc        12 MOL       0.040200
    159 H68         10.5420    -5.0210     8.5070 hc        12 MOL       0.040200
    160 H69          8.3210    -4.4330     9.5020 hc        12 MOL       0.055200
    161 H70          8.5140    -2.7440     8.9280 hc        12 MOL       0.055200
    162 H71         10.5420    -2.4840    10.3540 h1        12 MOL       0.027533
    163 H72         10.3500    -4.1730    10.9400 h1        12 MOL       0.027533
    164 H73         10.2430    -1.6790    12.5340 h1        12 MOL       0.039700
    165 H74         10.0410    -3.3580    13.1450 h1        12 MOL       0.039700
    166 H75          7.7700    -2.8100    13.8930 h1        12 MOL       0.042700
    167 H76          7.9810    -1.1270    13.2710 h1        12 MOL       0.042700
    168 H77          7.7020    -1.9690    16.0670 h1        12 MOL       0.042367
    169 H78          7.9240    -0.2980    15.4230 h1        12 MOL       0.042367
    170 H79          9.8610    -1.8500    17.1190 h1        12 MOL       0.042700
    171 H80         10.0830    -0.1790    16.4660 h1        12 MOL       0.042700
    172 H81          9.9490     0.6840    18.6240 h1        12 MOL       0.042700
    173 H82          9.7160    -0.9820    19.2860 h1        12 MOL       0.042700
    174 H83          7.4460    -0.4310    19.8700 h1        12 MOL       0.042200
    175 H84          7.6760     1.2320    19.2120 h1        12 MOL       0.042200
    176 H85          7.1920     0.4290    21.9940 h1        12 MOL       0.033700
    177 H86          7.4260     2.1050    21.3600 h1        12 MOL       0.033700
    178 H87          9.5490     2.2560    22.5820 h1        12 MOL       0.059367
    179 H88          9.3090     0.5860    23.1990 h1        12 MOL       0.059367
    180 H89          7.5630     2.8340    23.6210 ho        12 MOL       0.398000
    181 H90         11.5130   -11.7360    -7.2830 hc        12 MOL       0.044533
    182 H91         12.2970   -10.1360    -7.4990 hc        12 MOL       0.044533
    183 H92         13.4240   -10.9720    -9.5580 hc        12 MOL       0.043867
    184 H93         12.6300   -12.5680    -9.3370 hc        12 MOL       0.043867
    185 H94         13.6830   -12.7900    -7.1000 hc        12 MOL       0.040700
    186 H95         14.4910   -11.2030    -7.3140 hc        12 MOL       0.040700
    187 H96         15.7130   -12.1000    -9.2980 hc        12 MOL       0.040867
    188 H97         14.8860   -13.6820    -9.0800 hc        12 MOL       0.040867
    189 H98         15.8270   -13.8670    -6.7920 hc        12 MOL       0.039867
    190 H99         16.6690   -12.2960    -7.0020 hc        12 MOL       0.039867
    191 H100        17.9500   -13.2490    -8.9180 hc        12 MOL       0.040533
    192 H101        17.0890   -14.8120    -8.7040 hc        12 MOL       0.040533
    193 H102        17.9470   -14.9780    -6.3820 hc        12 MOL       0.039700
    194 H103        18.8240   -13.4250    -6.5860 hc        12 MOL       0.039700
    195 H104        20.1440   -14.4290    -8.4540 hc        12 MOL       0.042033
    196 H105        19.2480   -15.9720    -8.2470 hc        12 MOL       0.042033
    197 H106        20.0660   -16.1440    -5.9080 hc        12 MOL       0.040200
    198 H107        20.9770   -14.6080    -6.1070 hc        12 MOL       0.040200
    199 H108        22.2830   -15.6350    -7.9680 hc        12 MOL       0.055200
    200 H109        21.3570   -17.1610    -7.7670 hc        12 MOL       0.055200
    201 H110        22.1800   -17.3640    -5.4280 h1        12 MOL       0.027533
    202 H111        23.1200   -15.8430    -5.6190 h1        12 MOL       0.027533
    203 H112        24.1370   -18.5630    -5.0470 h1        12 MOL       0.039700
    204 H113        25.1110   -17.0620    -5.2270 h1        12 MOL       0.039700
    205 H114        26.2610   -18.0460    -7.1540 h1        12 MOL       0.042700
    206 H115        25.2720   -19.5440    -6.9710 h1        12 MOL       0.042700
    207 H116        28.1250   -19.2480    -6.6750 h1        12 MOL       0.042367
    208 H117        27.1130   -20.7270    -6.4940 h1        12 MOL       0.042367
    209 H118        27.7550   -20.8950    -4.1800 h1        12 MOL       0.042700
    210 H119        28.7790   -19.4120    -4.3570 h1        12 MOL       0.042700
    211 H120        29.7240   -22.2430    -4.0370 h1        12 MOL       0.042700
    212 H121        30.7540   -20.7640    -4.2170 h1        12 MOL       0.042700
    213 H122        31.3710   -21.4700    -6.4420 h1        12 MOL       0.042200
    214 H123        30.3480   -22.9420    -6.2650 h1        12 MOL       0.042200
    215 H124        33.2210   -22.7650    -6.6320 h1        12 MOL       0.033700
    216 H125        32.2120   -24.2520    -6.4520 h1        12 MOL       0.033700
    217 H126        33.3250   -24.7330    -4.3200 h1        12 MOL       0.059367
    218 H127        34.3200   -23.2490    -4.5060 h1        12 MOL       0.059367
    219 H128        34.2280   -25.4850    -6.3170 ho        12 MOL       0.398000
@<TRIPOS>BOND
     1     1    10 1   
     2     1    13 1   
     3     1    94 1   
     4     2    11 1   
     5     2    12 1   
     6     2    95 1   
     7     3    14 1   
     8     3    15 1   
     9     3   100 1   
    10     4     5 ar  
    11     4     9 ar  
    12     4    15 1   
    13     5     6 ar  
    14     5    91 1   
    15     6     7 ar  
    16     6    11 1   
    17     7     8 ar  
    18     7    92 1   
    19     8     9 ar  
    20     8    10 1   
    21     9    93 1   
    22    10    73 2   
    23    11    74 2   
    24    12    35 1   
    25    12    96 1   
    26    12    97 1   
    27    13    54 1   
    28    13    98 1   
    29    13    99 1   
    30    14    16 1   
    31    14   101 1   
    32    14   102 1   
    33    15    75 2   
    34    16    17 1   
    35    16   103 1   
    36    16   104 1   
    37    17    18 1   
    38    17   105 1   
    39    17   106 1   
    40    18    19 1   
    41    18   107 1   
    42    18   108 1   
    43    19    20 1   
    44    19   109 1   
    45    19   110 1   
    46    20    21 1   
    47    20   111 1   
    48    20   112 1   
    49    21    22 1   
    50    21   113 1   
    51    21   114 1   
    52    22    23 1   
    53    22   115 1   
    54    22   116 1   
    55    23    24 1   
    56    23   117 1   
    57    23   118 1   
    58    24    25 1   
    59    24   119 1   
    60    24   120 1   
    61    25    26 1   
    62    25   121 1   
    63    25   122 1   
    64    26    76 1   
    65    26   123 1   
    66    26   124 1   
    67    27    28 1   
    68    27    76 1   
    69    27   125 1   
    70    27   126 1   
    71    28    77 1   
    72    28   127 1   
    73    28   128 1   
    74    29    30 1   
    75    29    77 1   
    76    29   129 1   
    77    29   130 1   
    78    30    78 1   
    79    30   131 1   
    80    30   132 1   
    81    31    32 1   
    82    31    78 1   
    83    31   133 1   
    84    31   134 1   
    85    32    79 1   
    86    32   135 1   
    87    32   136 1   
    88    33    34 1   
    89    33    79 1   
    90    33   137 1   
    91    33   138 1   
    92    34    80 1   
    93    34   139 1   
    94    34   140 1   
    95    35    36 1   
    96    35   142 1   
    97    35   143 1   
    98    36    37 1   
    99    36   144 1   
   100    36   145 1   
   101    37    38 1   
   102    37   146 1   
   103    37   147 1   
   104    38    39 1   
   105    38   148 1   
   106    38   149 1   
   107    39    40 1   
   108    39   150 1   
   109    39   151 1   
   110    40    41 1   
   111    40   152 1   
   112    40   153 1   
   113    41    42 1   
   114    41   154 1   
   115    41   155 1   
   116    42    43 1   
   117    42   156 1   
   118    42   157 1   
   119    43    44 1   
   120    43   158 1   
   121    43   159 1   
   122    44    45 1   
   123    44   160 1   
   124    44   161 1   
   125    45    81 1   
   126    45   162 1   
   127    45   163 1   
   128    46    47 1   
   129    46    81 1   
   130    46   164 1   
   131    46   165 1   
   132    47    82 1   
   133    47   166 1   
   134    47   167 1   
   135    48    49 1   
   136    48    82 1   
   137    48   168 1   
   138    48   169 1   
   139    49    83 1   
   140    49   170 1   
   141    49   171 1   
   142    50    51 1   
   143    50    83 1   
   144    50   172 1   
   145    50   173 1   
   146    51    84 1   
   147    51   174 1   
   148    51   175 1   
   149    52    53 1   
   150    52    84 1   
   151    52   176 1   
   152    52   177 1   
   153    53    85 1   
   154    53   178 1   
   155    53   179 1   
   156    54    55 1   
   157    54   181 1   
   158    54   182 1   
   159    55    56 1   
   160    55   183 1   
   161    55   184 1   
   162    56    57 1   
   163    56   185 1   
   164    56   186 1   
   165    57    58 1   
   166    57   187 1   
   167    57   188 1   
   168    58    59 1   
   169    58   189 1   
   170    58   190 1   
   171    59    60 1   
   172    59   191 1   
   173    59   192 1   
   174    60    61 1   
   175    60   193 1   
   176    60   194 1   
   177    61    62 1   
   178    61   195 1   
   179    61   196 1   
   180    62    63 1   
   181    62   197 1   
   182    62   198 1   
   183    63    64 1   
   184    63   199 1   
   185    63   200 1   
   186    64    86 1   
   187    64   201 1   
   188    64   202 1   
   189    65    66 1   
   190    65    86 1   
   191    65   203 1   
   192    65   204 1   
   193    66    87 1   
   194    66   205 1   
   195    66   206 1   
   196    67    68 1   
   197    67    87 1   
   198    67   207 1   
   199    67   208 1   
   200    68    88 1   
   201    68   209 1   
   202    68   210 1   
   203    69    70 1   
   204    69    88 1   
   205    69   211 1   
   206    69   212 1   
   207    70    89 1   
   208    70   213 1   
   209    70   214 1   
   210    71    72 1   
   211    71    89 1   
   212    71   215 1   
   213    71   216 1   
   214    72    90 1   
   215    72   217 1   
   216    72   218 1   
   217    80   141 1   
   218    85   180 1   
   219    90   219 1   
@<TRIPOS>SUBSTRUCTURE
     1 MOL         1 TEMP              0 ****  ****    0 ROOT
