@<TRIPOS>MOLECULE
MOL
  219   219     1     0     0
SMALL
bcc


@<TRIPOS>ATOM
      1 N           15.8470     3.0330   -19.8150 n         17 MOL      -0.558567
      2 N1          12.8360     6.9700   -15.5650 n         17 MOL      -0.558567
      3 N2           9.8670     5.3010   -20.8720 n         17 MOL      -0.558567
      4 C           11.8900     4.6780   -19.6900 ca        17 MOL      -0.156267
      5 C1          11.5020     5.2930   -18.4920 ca        17 MOL      -0.038000
      6 C2          12.4150     5.5200   -17.4580 ca        17 MOL      -0.156267
      7 C3          13.7380     5.0880   -17.6180 ca        17 MOL      -0.038000
      8 C4          14.1560     4.4410   -18.7890 ca        17 MOL      -0.156267
      9 C5          13.2200     4.2500   -19.8210 ca        17 MOL      -0.038000
     10 C6          15.5950     3.9930   -18.9180 c         17 MOL       0.669033
     11 C7          11.9510     6.1820   -16.1860 c         17 MOL       0.669033
     12 C8          12.4350     7.6460   -14.3820 c3        17 MOL       0.084333
     13 C9          17.1880     2.5510   -20.1070 c3        17 MOL       0.084333
     14 C10          8.8610     5.1790   -21.8530 c3        17 MOL       0.084333
     15 C11         10.8990     4.4490   -20.8090 c         17 MOL       0.669033
     16 C12          7.6870     6.0300   -21.3950 c3        17 MOL      -0.105400
     17 C13          6.5560     5.9550   -22.4000 c3        17 MOL      -0.077400
     18 C14          5.4280     6.8280   -21.8660 c3        17 MOL      -0.078733
     19 C15          4.2540     6.8050   -22.8270 c3        17 MOL      -0.079400
     20 C16          3.1580     7.6890   -22.2510 c3        17 MOL      -0.079400
     21 C17          1.9780     7.6830   -23.2030 c3        17 MOL      -0.079400
     22 C18          0.8780     8.5700   -22.6370 c3        17 MOL      -0.079400
     23 C19         -0.2850     8.5490   -23.6170 c3        17 MOL      -0.078400
     24 C20         -1.4210     9.4290   -23.1070 c3        17 MOL      -0.078400
     25 C21         -2.5390     9.3640   -24.1410 c3        17 MOL      -0.084400
     26 C22         -3.7210    10.2280   -23.7130 c3        17 MOL       0.133400
     27 C23         -5.8150    10.8740   -24.4420 c3        17 MOL       0.128400
     28 C24         -6.7400    10.6830   -25.5630 c3        17 MOL       0.130400
     29 C25         -8.7150    11.3530   -26.2180 c3        17 MOL       0.130400
     30 C26         -9.7760    12.1900   -25.7910 c3        17 MOL       0.129400
     31 C27        -11.7330    12.7410   -26.6650 c3        17 MOL       0.130400
     32 C28        -12.4110    12.3900   -27.8740 c3        17 MOL       0.128400
     33 C29        -14.3160    12.7930   -28.9170 c3        17 MOL       0.094400
     34 C30        -15.5430    13.5770   -28.6850 c3        17 MOL       0.125400
     35 C31         13.5870     7.9130   -13.4220 c3        17 MOL      -0.105400
     36 C32         12.9580     8.6470   -12.2440 c3        17 MOL      -0.077400
     37 C33         13.9810     8.9920   -11.1710 c3        17 MOL      -0.078733
     38 C34         13.2030     9.7250   -10.0800 c3        17 MOL      -0.079400
     39 C35         14.1020    10.1400    -8.9220 c3        17 MOL      -0.079400
     40 C36         13.2030    10.8660    -7.9230 c3        17 MOL      -0.079400
     41 C37         13.9940    11.3390    -6.7100 c3        17 MOL      -0.079400
     42 C38         13.0060    12.0610    -5.7880 c3        17 MOL      -0.078400
     43 C39         13.7110    12.5820    -4.5370 c3        17 MOL      -0.078400
     44 C40         12.6640    13.3000    -3.6780 c3        17 MOL      -0.084400
     45 C41         13.3150    13.8520    -2.4080 c3        17 MOL       0.133400
     46 C42         12.8680    15.0400    -0.4950 c3        17 MOL       0.128400
     47 C43         11.8060    15.7350     0.2480 c3        17 MOL       0.130400
     48 C44         11.6870    16.8810     2.1440 c3        17 MOL       0.130400
     49 C45         12.5900    17.2510     3.1710 c3        17 MOL       0.129400
     50 C46         12.4920    18.3930     5.0410 c3        17 MOL       0.130400
     51 C47         11.4810    19.1000     5.7570 c3        17 MOL       0.128400
     52 C48         11.2850    20.2610     7.6380 c3        17 MOL       0.094400
     53 C49         12.1600    20.6580     8.7580 c3        17 MOL       0.125400
     54 C50         17.9720     2.0690   -18.8660 c3        17 MOL      -0.105400
     55 C51         19.3550     1.6370   -19.3600 c3        17 MOL      -0.077400
     56 C52         20.2260     1.1630   -18.1980 c3        17 MOL      -0.078733
     57 C53         21.5880     0.7620   -18.7790 c3        17 MOL      -0.079400
     58 C54         22.5330     0.2850   -17.6740 c3        17 MOL      -0.079400
     59 C55         23.8660    -0.0920   -18.3310 c3        17 MOL      -0.079400
     60 C56         24.8640    -0.5740   -17.2740 c3        17 MOL      -0.079400
     61 C57         26.1750    -0.9400   -17.9870 c3        17 MOL      -0.078400
     62 C58         27.2150    -1.4310   -16.9730 c3        17 MOL      -0.078400
     63 C59         28.4990    -1.7920   -17.7350 c3        17 MOL      -0.084400
     64 C60         29.5710    -2.2960   -16.7560 c3        17 MOL       0.133400
     65 C61         31.7310    -3.1060   -16.6400 c3        17 MOL       0.128400
     66 C62         32.9070    -3.4620   -17.4560 c3        17 MOL       0.130400
     67 C63         34.9230    -4.3200   -17.1310 c3        17 MOL       0.130400
     68 C64         35.7210    -4.7800   -16.0480 c3        17 MOL       0.129400
     69 C65         37.7260    -5.6760   -15.8470 c3        17 MOL       0.130400
     70 C66         38.7670    -6.0460   -16.7550 c3        17 MOL       0.128400
     71 C67         40.7910    -6.9510   -16.7130 c3        17 MOL       0.094400
     72 C68         41.7370    -7.4640   -15.7010 c3        17 MOL       0.125400
     73 O           16.4830     4.4890   -18.2200 o         17 MOL      -0.606767
     74 O1          10.8100     6.0000   -15.7650 o         17 MOL      -0.606767
     75 O2          11.0490     3.5340   -21.6200 o         17 MOL      -0.606767
     76 O3          -4.7090    10.1150   -24.7340 os        17 MOL      -0.427600
     77 O4          -7.8260    11.4520   -25.2530 os        17 MOL      -0.430600
     78 O5         -10.6160    12.0390   -26.8070 os        17 MOL      -0.430600
     79 O6         -13.5450    13.0520   -27.8070 os        17 MOL      -0.425600
     80 O7         -16.4000    13.3740   -29.7570 oh        17 MOL      -0.592800
     81 O8          12.3120    14.5240    -1.6390 os        17 MOL      -0.427600
     82 O9          12.4740    16.2010     1.3430 os        17 MOL      -0.430600
     83 O10         11.8140    17.9460     3.9880 os        17 MOL      -0.430600
     84 O11         12.1260    19.5530     6.8120 os        17 MOL      -0.425600
     85 O12         11.4060    21.3790     9.6700 oh        17 MOL      -0.592800
     86 O13         30.7510    -2.6360   -17.4960 os        17 MOL      -0.427600
     87 O14         33.8140    -3.9270   -16.5350 os        17 MOL      -0.430600
     88 O15         36.8170    -5.1820   -16.6820 os        17 MOL      -0.430600
     89 O16         39.7010    -6.5490   -15.9710 os        17 MOL      -0.425600
     90 O17         42.8860    -7.8920   -16.3520 oh        17 MOL      -0.592800
     91 H253        10.5200     5.5850   -18.3700 ha        17 MOL       0.162000
     92 H254        14.4180     5.2490   -16.8590 ha        17 MOL       0.162000
     93 H255        13.5170     3.7850   -20.6930 ha        17 MOL       0.162000
     94 H250        15.0800     2.6660   -20.3110 hn        17 MOL       0.311500
     95 H251        13.7210     7.0770   -15.9830 hn        17 MOL       0.311500
     96 H5          11.6580     7.0490   -13.8820 h1        17 MOL       0.064200
     97 H6          11.9970     8.6100   -14.6720 h1        17 MOL       0.064200
     98 H7          17.7580     3.3820   -20.5460 h1        17 MOL       0.064200
     99 H8          17.1230     1.7300   -20.8350 h1        17 MOL       0.064200
    100 H252         9.8650     6.0530   -20.2370 hn        17 MOL       0.311500
    101 H10          8.5730     4.1240   -21.9630 h1        17 MOL       0.064200
    102 H11          9.2400     5.5460   -22.8180 h1        17 MOL       0.064200
    103 H12          8.0110     7.0750   -21.2940 hc        17 MOL       0.046033
    104 H13          7.3300     5.6610   -20.4210 hc        17 MOL       0.046033
    105 H14          6.2130     4.9160   -22.5020 hc        17 MOL       0.043200
    106 H15          6.8960     6.3310   -23.3750 hc        17 MOL       0.043200
    107 H16          5.7880     7.8610   -21.7560 hc        17 MOL       0.041033
    108 H17          5.1050     6.4470   -20.8860 hc        17 MOL       0.041033
    109 H18          3.8810     5.7760   -22.9380 hc        17 MOL       0.040533
    110 H19          4.5670     7.1920   -23.8070 hc        17 MOL       0.040533
    111 H20          3.5350     8.7160   -22.1390 hc        17 MOL       0.040033
    112 H21          2.8460     7.3020   -21.2710 hc        17 MOL       0.040033
    113 H22          1.6010     6.6570   -23.3170 hc        17 MOL       0.040367
    114 H23          2.2940     8.0700   -24.1820 hc        17 MOL       0.040367
    115 H24          1.2540     9.5980   -22.5240 hc        17 MOL       0.039700
    116 H25          0.5550     8.1850   -21.6590 hc        17 MOL       0.039700
    117 H26         -0.6480     7.5180   -23.7310 hc        17 MOL       0.041700
    118 H27          0.0550     8.9270   -24.5910 hc        17 MOL       0.041700
    119 H28         -1.0710    10.4660   -22.9990 hc        17 MOL       0.040367
    120 H29         -1.7810     9.0570   -22.1370 hc        17 MOL       0.040367
    121 H30         -2.8700     8.3210   -24.2490 hc        17 MOL       0.054867
    122 H31         -2.1570     9.7270   -25.1050 hc        17 MOL       0.054867
    123 H32         -3.4000    11.2760   -23.6130 h1        17 MOL       0.027700
    124 H33         -4.1230     9.8680   -22.7540 h1        17 MOL       0.027700
    125 H34         -5.5450    11.9360   -24.3630 h1        17 MOL       0.039700
    126 H35         -6.2840    10.5360   -23.5090 h1        17 MOL       0.039700
    127 H36         -7.0240     9.6220   -25.6490 h1        17 MOL       0.042367
    128 H37         -6.2750    11.0270   -26.5010 h1        17 MOL       0.042367
    129 H38         -9.0700    10.3180   -26.3280 h1        17 MOL       0.042200
    130 H39         -8.3080    11.7180   -27.1720 h1        17 MOL       0.042200
    131 H40         -9.4350    13.2310   -25.6920 h1        17 MOL       0.042700
    132 H41        -10.2050    11.8280   -24.8450 h1        17 MOL       0.042700
    133 H42        -11.5350    13.8220   -26.6250 h1        17 MOL       0.042700
    134 H43        -12.3090    12.4190   -25.7850 h1        17 MOL       0.042700
    135 H44        -12.5870    11.3050   -27.9040 h1        17 MOL       0.042200
    136 H45        -11.8180    12.7020   -28.7440 h1        17 MOL       0.042200
    137 H46        -14.5540    11.7180   -28.9830 h1        17 MOL       0.033700
    138 H47        -13.8060    13.1260   -29.8350 h1        17 MOL       0.033700
    139 H48        -15.2850    14.6410   -28.6010 h1        17 MOL       0.059200
    140 H49        -16.0160    13.2360   -27.7550 h1        17 MOL       0.059200
    141 H50        -15.9800    13.6930   -30.5950 ho        17 MOL       0.398000
    142 H51         14.3510     8.5420   -13.9010 hc        17 MOL       0.046033
    143 H52         14.0360     6.9660   -13.0890 hc        17 MOL       0.046033
    144 H53         12.1800     8.0100   -11.8010 hc        17 MOL       0.043200
    145 H54         12.5000     9.5760   -12.6120 hc        17 MOL       0.043200
    146 H55         14.7610     9.6450   -11.5860 hc        17 MOL       0.041033
    147 H56         14.4340     8.0750   -10.7690 hc        17 MOL       0.041033
    148 H57         12.4120     9.0640    -9.6980 hc        17 MOL       0.040533
    149 H58         12.7450    10.6250   -10.5140 hc        17 MOL       0.040533
    150 H59         14.8920    10.8160    -9.2790 hc        17 MOL       0.040033
    151 H60         14.5540     9.2530    -8.4540 hc        17 MOL       0.040033
    152 H61         12.4070    10.1830    -7.5910 hc        17 MOL       0.040367
    153 H62         12.7510    11.7370    -8.4190 hc        17 MOL       0.040367
    154 H63         14.7860    12.0310    -7.0280 hc        17 MOL       0.039700
    155 H64         14.4390    10.4770    -6.1920 hc        17 MOL       0.039700
    156 H65         12.2100    11.3630    -5.4910 hc        17 MOL       0.041700
    157 H66         12.5640    12.9090    -6.3300 hc        17 MOL       0.041700
    158 H67         14.5030    13.2880    -4.8230 hc        17 MOL       0.040367
    159 H68         14.1470    11.7430    -3.9760 hc        17 MOL       0.040367
    160 H69         11.8690    12.5910    -3.4050 hc        17 MOL       0.054867
    161 H70         12.2320    14.1290    -4.2560 hc        17 MOL       0.054867
    162 H71         14.1090    14.5630    -2.6820 h1        17 MOL       0.027700
    163 H72         13.7440    13.0260    -1.8220 h1        17 MOL       0.027700
    164 H73         13.6610    15.7580    -0.7480 h1        17 MOL       0.039700
    165 H74         13.2820    14.2340     0.1260 h1        17 MOL       0.039700
    166 H75         11.0050    15.0350     0.5370 h1        17 MOL       0.042367
    167 H76         11.3930    16.5650    -0.3480 h1        17 MOL       0.042367
    168 H77         10.8770    16.2570     2.5470 h1        17 MOL       0.042200
    169 H78         11.2780    17.7730     1.6500 h1        17 MOL       0.042200
    170 H79         13.4020    17.8690     2.7600 h1        17 MOL       0.042700
    171 H80         13.0000    16.3560     3.6610 h1        17 MOL       0.042700
    172 H81         13.3020    19.0740     4.7410 h1        17 MOL       0.042700
    173 H82         12.8880    17.5660     5.6480 h1        17 MOL       0.042700
    174 H83         10.6730    18.4140     6.0470 h1        17 MOL       0.042200
    175 H84         11.0840    19.9220     5.1450 h1        17 MOL       0.042200
    176 H85         10.4640    19.6220     8.0000 h1        17 MOL       0.033700
    177 H86         10.8800    21.1460     7.1220 h1        17 MOL       0.033700
    178 H87         12.9850    21.2750     8.3760 h1        17 MOL       0.059200
    179 H88         12.5640    19.7550     9.2350 h1        17 MOL       0.059200
    180 H89         11.0520    22.2020     9.2470 ho        17 MOL       0.398000
    181 H90         17.4560     1.2220   -18.3910 hc        17 MOL       0.046033
    182 H91         18.0800     2.8920   -18.1440 hc        17 MOL       0.046033
    183 H92         19.8440     2.4930   -19.8460 hc        17 MOL       0.043200
    184 H93         19.2410     0.8210   -20.0870 hc        17 MOL       0.043200
    185 H94         19.7560     0.3030   -17.7040 hc        17 MOL       0.041033
    186 H95         20.3560     1.9800   -17.4740 hc        17 MOL       0.041033
    187 H96         22.0350     1.6310   -19.2820 hc        17 MOL       0.040533
    188 H97         21.4450    -0.0480   -19.5090 hc        17 MOL       0.040533
    189 H98         22.1050    -0.5910   -17.1660 hc        17 MOL       0.040033
    190 H99         22.6930     1.0940   -16.9460 hc        17 MOL       0.040033
    191 H100        24.2790     0.7870   -18.8450 hc        17 MOL       0.040367
    192 H101        23.6950    -0.8950   -19.0620 hc        17 MOL       0.040367
    193 H102        24.4590    -1.4570   -16.7590 hc        17 MOL       0.039700
    194 H103        25.0460     0.2290   -16.5450 hc        17 MOL       0.039700
    195 H104        26.5660    -0.0550   -18.5080 hc        17 MOL       0.041700
    196 H105        25.9780    -1.7370   -18.7180 hc        17 MOL       0.041700
    197 H106        26.8330    -2.3200   -16.4520 hc        17 MOL       0.040367
    198 H107        27.4260    -0.6370   -16.2430 hc        17 MOL       0.040367
    199 H108        28.8730    -0.9020   -18.2620 hc        17 MOL       0.054867
    200 H109        28.2740    -2.5820   -18.4670 hc        17 MOL       0.054867
    201 H110        29.1960    -3.1880   -16.2300 h1        17 MOL       0.027700
    202 H111        29.8040    -1.5080   -16.0240 h1        17 MOL       0.027700
    203 H112        31.3740    -4.0010   -16.1110 h1        17 MOL       0.039700
    204 H113        32.0080    -2.3310   -15.9120 h1        17 MOL       0.039700
    205 H114        33.2980    -2.5790   -17.9850 h1        17 MOL       0.042367
    206 H115        32.6450    -4.2520   -18.1780 h1        17 MOL       0.042367
    207 H116        35.4210    -3.4890   -17.6490 h1        17 MOL       0.042200
    208 H117        34.7270    -5.1440   -17.8310 h1        17 MOL       0.042200
    209 H118        35.2250    -5.6150   -15.5310 h1        17 MOL       0.042700
    210 H119        35.9330    -3.9610   -15.3440 h1        17 MOL       0.042700
    211 H120        37.3470    -6.5600   -15.3120 h1        17 MOL       0.042700
    212 H121        38.0810    -4.9160   -15.1340 h1        17 MOL       0.042700
    213 H122        39.1320    -5.1590   -17.2910 h1        17 MOL       0.042200
    214 H123        38.3980    -6.7970   -17.4670 h1        17 MOL       0.042200
    215 H124        41.2320    -6.0970   -17.2520 h1        17 MOL       0.033700
    216 H125        40.5100    -7.7450   -17.4230 h1        17 MOL       0.033700
    217 H126        41.2750    -8.3010   -15.1590 h1        17 MOL       0.059200
    218 H127        41.9830    -6.6580   -14.9970 h1        17 MOL       0.059200
    219 H128        42.6690    -8.6300   -16.9770 ho        17 MOL       0.398000
@<TRIPOS>BOND
     1     1    10 1   
     2     1    13 1   
     3     1    94 1   
     4     2    11 1   
     5     2    12 1   
     6     2    95 1   
     7     3    14 1   
     8     3    15 1   
     9     3   100 1   
    10     4     5 ar  
    11     4     9 ar  
    12     4    15 1   
    13     5     6 ar  
    14     5    91 1   
    15     6     7 ar  
    16     6    11 1   
    17     7     8 ar  
    18     7    92 1   
    19     8     9 ar  
    20     8    10 1   
    21     9    93 1   
    22    10    73 2   
    23    11    74 2   
    24    12    35 1   
    25    12    96 1   
    26    12    97 1   
    27    13    54 1   
    28    13    98 1   
    29    13    99 1   
    30    14    16 1   
    31    14   101 1   
    32    14   102 1   
    33    15    75 2   
    34    16    17 1   
    35    16   103 1   
    36    16   104 1   
    37    17    18 1   
    38    17   105 1   
    39    17   106 1   
    40    18    19 1   
    41    18   107 1   
    42    18   108 1   
    43    19    20 1   
    44    19   109 1   
    45    19   110 1   
    46    20    21 1   
    47    20   111 1   
    48    20   112 1   
    49    21    22 1   
    50    21   113 1   
    51    21   114 1   
    52    22    23 1   
    53    22   115 1   
    54    22   116 1   
    55    23    24 1   
    56    23   117 1   
    57    23   118 1   
    58    24    25 1   
    59    24   119 1   
    60    24   120 1   
    61    25    26 1   
    62    25   121 1   
    63    25   122 1   
    64    26    76 1   
    65    26   123 1   
    66    26   124 1   
    67    27    28 1   
    68    27    76 1   
    69    27   125 1   
    70    27   126 1   
    71    28    77 1   
    72    28   127 1   
    73    28   128 1   
    74    29    30 1   
    75    29    77 1   
    76    29   129 1   
    77    29   130 1   
    78    30    78 1   
    79    30   131 1   
    80    30   132 1   
    81    31    32 1   
    82    31    78 1   
    83    31   133 1   
    84    31   134 1   
    85    32    79 1   
    86    32   135 1   
    87    32   136 1   
    88    33    34 1   
    89    33    79 1   
    90    33   137 1   
    91    33   138 1   
    92    34    80 1   
    93    34   139 1   
    94    34   140 1   
    95    35    36 1   
    96    35   142 1   
    97    35   143 1   
    98    36    37 1   
    99    36   144 1   
   100    36   145 1   
   101    37    38 1   
   102    37   146 1   
   103    37   147 1   
   104    38    39 1   
   105    38   148 1   
   106    38   149 1   
   107    39    40 1   
   108    39   150 1   
   109    39   151 1   
   110    40    41 1   
   111    40   152 1   
   112    40   153 1   
   113    41    42 1   
   114    41   154 1   
   115    41   155 1   
   116    42    43 1   
   117    42   156 1   
   118    42   157 1   
   119    43    44 1   
   120    43   158 1   
   121    43   159 1   
   122    44    45 1   
   123    44   160 1   
   124    44   161 1   
   125    45    81 1   
   126    45   162 1   
   127    45   163 1   
   128    46    47 1   
   129    46    81 1   
   130    46   164 1   
   131    46   165 1   
   132    47    82 1   
   133    47   166 1   
   134    47   167 1   
   135    48    49 1   
   136    48    82 1   
   137    48   168 1   
   138    48   169 1   
   139    49    83 1   
   140    49   170 1   
   141    49   171 1   
   142    50    51 1   
   143    50    83 1   
   144    50   172 1   
   145    50   173 1   
   146    51    84 1   
   147    51   174 1   
   148    51   175 1   
   149    52    53 1   
   150    52    84 1   
   151    52   176 1   
   152    52   177 1   
   153    53    85 1   
   154    53   178 1   
   155    53   179 1   
   156    54    55 1   
   157    54   181 1   
   158    54   182 1   
   159    55    56 1   
   160    55   183 1   
   161    55   184 1   
   162    56    57 1   
   163    56   185 1   
   164    56   186 1   
   165    57    58 1   
   166    57   187 1   
   167    57   188 1   
   168    58    59 1   
   169    58   189 1   
   170    58   190 1   
   171    59    60 1   
   172    59   191 1   
   173    59   192 1   
   174    60    61 1   
   175    60   193 1   
   176    60   194 1   
   177    61    62 1   
   178    61   195 1   
   179    61   196 1   
   180    62    63 1   
   181    62   197 1   
   182    62   198 1   
   183    63    64 1   
   184    63   199 1   
   185    63   200 1   
   186    64    86 1   
   187    64   201 1   
   188    64   202 1   
   189    65    66 1   
   190    65    86 1   
   191    65   203 1   
   192    65   204 1   
   193    66    87 1   
   194    66   205 1   
   195    66   206 1   
   196    67    68 1   
   197    67    87 1   
   198    67   207 1   
   199    67   208 1   
   200    68    88 1   
   201    68   209 1   
   202    68   210 1   
   203    69    70 1   
   204    69    88 1   
   205    69   211 1   
   206    69   212 1   
   207    70    89 1   
   208    70   213 1   
   209    70   214 1   
   210    71    72 1   
   211    71    89 1   
   212    71   215 1   
   213    71   216 1   
   214    72    90 1   
   215    72   217 1   
   216    72   218 1   
   217    80   141 1   
   218    85   180 1   
   219    90   219 1   
@<TRIPOS>SUBSTRUCTURE
     1 MOL         1 TEMP              0 ****  ****    0 ROOT
