@<TRIPOS>MOLECULE
MOL
  378   381     1     0     0
SMALL
bcc


@<TRIPOS>ATOM
      1 N           11.6840    -5.7350   -12.1420 n         14 MOL      -0.563567
      2 N1           8.8860    -1.4220    -8.2190 n         14 MOL      -0.563567
      3 N2           5.8090    -1.5560   -12.3770 n         14 MOL      -0.563567
      4 C            7.7820    -2.9480   -12.0800 ca        14 MOL      -0.153600
      5 C1           7.9890    -2.5920   -10.7380 ca        14 MOL      -0.041000
      6 C2           9.1680    -2.9500   -10.0660 ca        14 MOL      -0.153600
      7 C3          10.1460    -3.6780   -10.7560 ca        14 MOL      -0.041000
      8 C4           9.9670    -4.0400   -12.1000 ca        14 MOL      -0.153600
      9 C5           8.7870    -3.6610   -12.7480 ca        14 MOL      -0.041000
     10 C6          11.0140    -4.8210   -12.8520 c         14 MOL       0.669700
     11 C7           9.3740    -2.6020    -8.6130 c         14 MOL       0.669700
     12 C8           8.9200    -0.9080    -6.8380 c3        14 MOL       0.084333
     13 C9          12.6900    -6.5310   -12.7610 c3        14 MOL       0.084333
     14 C10          4.5860    -1.1970   -13.0260 c3        14 MOL       0.084333
     15 C11          6.4980    -2.6220   -12.8040 c         14 MOL       0.669700
     16 C12          3.8500    -0.1360   -12.2130 c3        14 MOL      -0.104400
     17 C13          2.5540     0.2300   -12.9230 c3        14 MOL      -0.077400
     18 C14          1.8370     1.2870   -12.0910 c3        14 MOL      -0.078400
     19 C15          0.5310     1.6750   -12.7750 c3        14 MOL      -0.079400
     20 C16         -0.1620     2.7280   -11.9200 c3        14 MOL      -0.078733
     21 C17         -1.4710     3.1310   -12.5860 c3        14 MOL      -0.079400
     22 C18         -2.1500     4.1830   -11.7190 c3        14 MOL      -0.079400
     23 C19         -3.4630     4.5980   -12.3760 c3        14 MOL      -0.078400
     24 C20         -4.1380     5.6520   -11.5050 c3        14 MOL      -0.078400
     25 C21         -5.4490     6.0670   -12.1640 c3        14 MOL      -0.084400
     26 C22         -6.1280     7.1240   -11.2970 c3        14 MOL       0.133400
     27 C23         -7.9730     8.4660   -11.1540 c3        14 MOL       0.128400
     28 C24         -9.2200     8.8350   -11.8300 c3        14 MOL       0.130400
     29 C25        -10.8810    10.2330   -11.4490 c3        14 MOL       0.130400
     30 C26        -11.2330    11.1780   -10.4570 c3        14 MOL       0.129400
     31 C27        -12.9060    12.5750   -10.1320 c3        14 MOL       0.130400
     32 C28        -14.1270    12.9000   -10.8690 c3        14 MOL       0.128400
     33 C29        -16.0080    14.2440   -10.8590 c3        14 MOL       0.105733
     34 C30        -16.7420    15.3590   -10.0710 c3        14 MOL       0.085333
     35 C31         13.7280    -6.9710   -11.7280 c3        14 MOL      -0.104400
     36 C32         14.7800    -7.8280   -12.4320 c3        14 MOL      -0.077400
     37 C33         15.8320    -8.2750   -11.4170 c3        14 MOL      -0.078400
     38 C34         16.8760    -9.1330   -12.1340 c3        14 MOL      -0.079400
     39 C35         17.9400    -9.5860   -11.1350 c3        14 MOL      -0.078733
     40 C36         18.9650   -10.4450   -11.8750 c3        14 MOL      -0.079400
     41 C37         20.0450   -10.9100   -10.8980 c3        14 MOL      -0.079400
     42 C38         21.0510   -11.7730   -11.6660 c3        14 MOL      -0.078400
     43 C39         22.1530   -12.2610   -10.7220 c3        14 MOL      -0.078400
     44 C40         23.1280   -13.1250   -11.5290 c3        14 MOL      -0.084400
     45 C41         24.2520   -13.6350   -10.6200 c3        14 MOL       0.133400
     46 C42         26.1670   -14.9170   -10.6220 c3        14 MOL       0.128400
     47 C43         27.0210   -15.7480   -11.4830 c3        14 MOL       0.130400
     48 C44         28.8590   -16.9510   -11.2680 c3        14 MOL       0.130400
     49 C45         29.7900   -17.2690   -10.2500 c3        14 MOL       0.129400
     50 C46         31.6260   -18.4690   -10.1050 c3        14 MOL       0.130400
     51 C47         32.3910   -19.3020   -11.0020 c3        14 MOL       0.128400
     52 C48         34.2380   -20.6010   -11.0300 c3        14 MOL       0.105733
     53 C49         35.3450   -21.0360   -10.1130 c3        14 MOL       0.085333
     54 C50         10.1780    -1.2130    -6.0020 c3        14 MOL      -0.104400
     55 C51          9.9100    -0.5520    -4.6510 c3        14 MOL      -0.077400
     56 C52         11.0520    -0.7460    -3.6610 c3        14 MOL      -0.078400
     57 C53         10.6200     0.0000    -2.3930 c3        14 MOL      -0.079400
     58 C54         11.6600    -0.0810    -1.2740 c3        14 MOL      -0.078733
     59 C55         11.0850     0.7330    -0.1090 c3        14 MOL      -0.079400
     60 C56         12.0260     0.7570     1.0960 c3        14 MOL      -0.079400
     61 C57         11.3430     1.6250     2.1660 c3        14 MOL      -0.078400
     62 C58         12.1950     1.7460     3.4350 c3        14 MOL      -0.078400
     63 C59         11.4250     2.6520     4.4130 c3        14 MOL      -0.084400
     64 C60         12.2060     2.8520     5.7220 c3        14 MOL       0.133400
     65 C61         12.0930     3.9550     7.7600 c3        14 MOL       0.128400
     66 C62         11.2460     4.8690     8.5520 c3        14 MOL       0.130400
     67 C63         11.3170     5.8820    10.5240 c3        14 MOL       0.130400
     68 C64         12.1960     5.9530    11.6370 c3        14 MOL       0.129400
     69 C65         12.2670     6.9430    13.5950 c3        14 MOL       0.130400
     70 C66         11.4450     7.8340    14.3760 c3        14 MOL       0.128400
     71 C67         11.4840     8.8290    16.4220 c3        14 MOL       0.105733
     72 C68         12.3860     8.8820    17.6240 c3        14 MOL       0.085333
     73 O           11.2090    -4.6350   -14.0550 o         14 MOL      -0.595767
     74 O1           9.9720    -3.3650    -7.8500 o         14 MOL      -0.595767
     75 O2           6.1190    -3.3080   -13.7560 o         14 MOL      -0.595767
     76 O5          -7.3530     7.5120   -11.9180 os        14 MOL      -0.427600
     77 O6          -9.7420     9.7770   -10.9940 os        14 MOL      -0.430600
     78 O7         -12.3710    11.6270   -10.9280 os        14 MOL      -0.430600
     79 O8         -14.7950    13.8810   -10.1730 os        14 MOL      -0.425600
     80 O9          25.1360   -14.4430   -11.4030 os        14 MOL      -0.427600
     81 O10         28.0080   -16.1710   -10.6370 os        14 MOL      -0.430600
     82 O11         30.6310   -18.0530   -10.8990 os        14 MOL      -0.430600
     83 O12         33.4190   -19.7560   -10.2680 os        14 MOL      -0.425600
     84 O13         11.4360     3.7190     6.5690 os        14 MOL      -0.427600
     85 O14         11.9580     5.0620     9.7080 os        14 MOL      -0.430600
     86 O15         11.5590     6.7740    12.4650 os        14 MOL      -0.430600
     87 O16         12.1460     7.9960    15.5120 os        14 MOL      -0.425600
     88 H253         7.2620    -2.0580   -10.2370 ha        14 MOL       0.160667
     89 H254        11.0130    -3.9530   -10.2680 ha        14 MOL       0.160667
     90 H255         8.6530    -3.9120   -13.7400 ha        14 MOL       0.160667
     91 H250        11.4270    -5.8510   -11.1990 hn        14 MOL       0.307833
     92 H251         8.4790    -0.8470    -8.9070 hn        14 MOL       0.307833
     93 H5           8.0650    -1.3420    -6.2990 h1        14 MOL       0.064367
     94 H6           8.7840     0.1830    -6.8780 h1        14 MOL       0.064367
     95 H7          13.1640    -5.9520   -13.5680 h1        14 MOL       0.064367
     96 H8          12.2190    -7.4220   -13.1970 h1        14 MOL       0.064367
     97 H252         6.1830    -1.0270   -11.6360 hn        14 MOL       0.307833
     98 H11          3.9640    -2.0970   -13.1420 h1        14 MOL       0.064367
     99 H12          4.8150    -0.8080   -14.0280 h1        14 MOL       0.064367
    100 H13          4.4790     0.7610   -12.1190 hc        14 MOL       0.044700
    101 H14          3.6190    -0.5310   -11.2140 hc        14 MOL       0.044700
    102 H15          1.9190    -0.6630   -13.0170 hc        14 MOL       0.044033
    103 H16          2.7790     0.6290   -13.9220 hc        14 MOL       0.044033
    104 H17          2.4790     2.1740   -11.9950 hc        14 MOL       0.040533
    105 H18          1.6210     0.8810   -11.0930 hc        14 MOL       0.040533
    106 H19         -0.1160     0.7910   -12.8700 hc        14 MOL       0.041033
    107 H20          0.7410     2.0870   -13.7720 hc        14 MOL       0.041033
    108 H21          0.4870     3.6100   -11.8240 hc        14 MOL       0.039867
    109 H22         -0.3700     2.3140   -10.9230 hc        14 MOL       0.039867
    110 H23         -2.1240     2.2510   -12.6820 hc        14 MOL       0.040533
    111 H24         -1.2660     3.5480   -13.5830 hc        14 MOL       0.040533
    112 H25         -1.4920     5.0590   -11.6230 hc        14 MOL       0.039533
    113 H26         -2.3510     3.7630   -10.7230 hc        14 MOL       0.039533
    114 H27         -4.1210     3.7220   -12.4720 hc        14 MOL       0.041867
    115 H28         -3.2610     5.0170   -13.3720 hc        14 MOL       0.041867
    116 H29         -3.4800     6.5270   -11.4100 hc        14 MOL       0.040033
    117 H30         -4.3420     5.2330   -10.5100 hc        14 MOL       0.040033
    118 H31         -6.1060     5.1900   -12.2610 hc        14 MOL       0.055200
    119 H32         -5.2430     6.4840   -13.1610 hc        14 MOL       0.055200
    120 H33         -5.4670     7.9990   -11.2010 h1        14 MOL       0.027700
    121 H34         -6.3330     6.7060   -10.3000 h1        14 MOL       0.027700
    122 H35         -7.3340     9.3550   -11.0600 h1        14 MOL       0.039700
    123 H36         -8.2030     8.0670   -10.1560 h1        14 MOL       0.039700
    124 H37         -9.8900     7.9650   -11.9170 h1        14 MOL       0.042367
    125 H38         -9.0130     9.2590   -12.8250 h1        14 MOL       0.042367
    126 H39        -11.6390     9.4390   -11.5130 h1        14 MOL       0.042033
    127 H40        -10.7590    10.7270   -12.4240 h1        14 MOL       0.042033
    128 H41        -10.4770    11.9740   -10.3960 h1        14 MOL       0.042700
    129 H42        -11.3600    10.6900    -9.4810 h1        14 MOL       0.042700
    130 H43        -12.2440    13.4530   -10.0550 h1        14 MOL       0.043033
    131 H44        -13.1380    12.1770    -9.1310 h1        14 MOL       0.043033
    132 H45        -14.7480    11.9960   -10.9550 h1        14 MOL       0.042200
    133 H46        -13.8560    13.2590   -11.8730 h1        14 MOL       0.042200
    134 H47        -16.6590    13.3590   -10.9420 h1        14 MOL       0.033200
    135 H48        -15.7560    14.6100   -11.8670 h1        14 MOL       0.033200
    136 H49         13.2410    -7.5610   -10.9380 hc        14 MOL       0.044700
    137 H50         14.2080    -6.0870   -11.2850 hc        14 MOL       0.044700
    138 H51         15.2620    -7.2380   -13.2240 hc        14 MOL       0.044033
    139 H52         14.2960    -8.7090   -12.8750 hc        14 MOL       0.044033
    140 H53         15.3520    -8.8640   -10.6220 hc        14 MOL       0.040533
    141 H54         16.3180    -7.3920   -10.9770 hc        14 MOL       0.040533
    142 H55         17.3510    -8.5440   -12.9310 hc        14 MOL       0.041033
    143 H56         16.3860   -10.0150   -12.5720 hc        14 MOL       0.041033
    144 H57         17.4710   -10.1780   -10.3360 hc        14 MOL       0.039867
    145 H58         18.4370    -8.7070   -10.6990 hc        14 MOL       0.039867
    146 H59         19.4280    -9.8530   -12.6770 hc        14 MOL       0.040533
    147 H60         18.4620   -11.3200   -12.3090 hc        14 MOL       0.040533
    148 H61         19.5850   -11.5030   -10.0940 hc        14 MOL       0.039533
    149 H62         20.5540   -10.0360   -10.4670 hc        14 MOL       0.039533
    150 H63         21.5010   -11.1790   -12.4740 hc        14 MOL       0.041867
    151 H64         20.5310   -12.6410   -12.0970 hc        14 MOL       0.041867
    152 H65         21.7110   -12.8600    -9.9140 hc        14 MOL       0.040033
    153 H66         22.6840   -11.3990   -10.2950 hc        14 MOL       0.040033
    154 H67         23.5600   -12.5230   -12.3420 hc        14 MOL       0.055200
    155 H68         22.5850   -13.9810   -11.9550 hc        14 MOL       0.055200
    156 H69         23.8230   -14.2380    -9.8050 h1        14 MOL       0.027700
    157 H70         24.8020   -12.7810   -10.1970 h1        14 MOL       0.027700
    158 H71         25.7730   -15.5300    -9.7990 h1        14 MOL       0.039700
    159 H72         26.7550   -14.0830   -10.2170 h1        14 MOL       0.039700
    160 H73         27.4390   -15.1510   -12.3090 h1        14 MOL       0.042367
    161 H74         26.4510   -16.6020   -11.8820 h1        14 MOL       0.042367
    162 H75         29.3570   -16.4210   -12.0910 h1        14 MOL       0.042033
    163 H76         28.3690   -17.8630   -11.6380 h1        14 MOL       0.042033
    164 H77         29.2960   -17.8000    -9.4240 h1        14 MOL       0.042700
    165 H78         30.2860   -16.3580    -9.8830 h1        14 MOL       0.042700
    166 H79         31.2420   -19.0580    -9.2570 h1        14 MOL       0.043033
    167 H80         32.2290   -17.6220    -9.7430 h1        14 MOL       0.043033
    168 H81         32.7490   -18.7060   -11.8530 h1        14 MOL       0.042200
    169 H82         31.7670   -20.1330   -11.3610 h1        14 MOL       0.042200
    170 H83         34.6500   -20.0570   -11.8940 h1        14 MOL       0.033200
    171 H84         33.6650   -21.4770   -11.3740 h1        14 MOL       0.033200
    172 H85         11.0720    -0.7770    -6.4710 hc        14 MOL       0.044700
    173 H86         10.3090    -2.2980    -5.8780 hc        14 MOL       0.044700
    174 H87          8.9940    -0.9790    -4.2210 hc        14 MOL       0.044033
    175 H88          9.7640     0.5250    -4.8140 hc        14 MOL       0.044033
    176 H89         11.9770    -0.3130    -4.0630 hc        14 MOL       0.040533
    177 H90         11.1990    -1.8140    -3.4520 hc        14 MOL       0.040533
    178 H91          9.6750    -0.4290    -2.0300 hc        14 MOL       0.041033
    179 H92         10.4620     1.0580    -2.6480 hc        14 MOL       0.041033
    180 H93         12.6100     0.3590    -1.6070 hc        14 MOL       0.039867
    181 H94         11.8180    -1.1270    -0.9730 hc        14 MOL       0.039867
    182 H95         10.1230     0.2960     0.1960 hc        14 MOL       0.040533
    183 H96         10.9220     1.7650    -0.4500 hc        14 MOL       0.040533
    184 H97         12.9890     1.2030     0.8090 hc        14 MOL       0.039533
    185 H98         12.1870    -0.2650     1.4720 hc        14 MOL       0.039533
    186 H99         10.3720     1.1790     2.4270 hc        14 MOL       0.041867
    187 H100        11.1810     2.6300     1.7530 hc        14 MOL       0.041867
    188 H101        13.1650     2.2030     3.1910 hc        14 MOL       0.040033
    189 H102        12.3540     0.7540     3.8810 hc        14 MOL       0.040033
    190 H103        10.4500     2.1950     4.6370 hc        14 MOL       0.055200
    191 H104        11.2670     3.6310     3.9380 hc        14 MOL       0.055200
    192 H105        13.1790     3.3170     5.5040 h1        14 MOL       0.027700
    193 H106        12.3610     1.8830     6.2180 h1        14 MOL       0.027700
    194 H107        13.0650     4.4310     7.5720 h1        14 MOL       0.039700
    195 H108        12.2380     3.0160     8.3120 h1        14 MOL       0.039700
    196 H109        10.2690     4.4060     8.7640 h1        14 MOL       0.042367
    197 H110        11.1050     5.8220     8.0170 h1        14 MOL       0.042367
    198 H111        10.3460     5.4670    10.8280 h1        14 MOL       0.042033
    199 H112        11.1860     6.8760    10.0740 h1        14 MOL       0.042033
    200 H113        13.1690     6.3660    11.3320 h1        14 MOL       0.042700
    201 H114        12.3270     4.9560    12.0830 h1        14 MOL       0.042700
    202 H115        13.2450     7.4040    13.3860 h1        14 MOL       0.043033
    203 H116        12.4010     5.9870    14.1230 h1        14 MOL       0.043033
    204 H117        10.4710     7.3670    14.5770 h1        14 MOL       0.042200
    205 H118        11.3100     8.7890    13.8500 h1        14 MOL       0.042200
    206 H119        10.5080     8.3970    16.6940 h1        14 MOL       0.033200
    207 H120        11.3470     9.8350    15.9940 h1        14 MOL       0.033200
    208 N4          36.2390   -21.9320   -10.8180 n         14 MOL      -0.572567
    209 H121        34.9070   -21.5640    -9.2540 h1        14 MOL       0.076533
    210 H122        35.9000   -20.1570    -9.7570 h1        14 MOL       0.076533
    211 C69         37.1130   -22.6510   -10.1180 c         14 MOL       0.658433
    212 H123        36.3350   -21.8820   -11.8410 hn        14 MOL       0.308167
    213 O17         37.0710   -22.6240    -8.8830 o         14 MOL      -0.605100
    214 C70         38.1520   -23.4990   -10.8090 c3        14 MOL      -0.159400
    215 C71         39.2180   -23.9470    -9.7870 c3        14 MOL       0.140400
    216 H124        38.5930   -22.9320   -11.6450 hc        14 MOL       0.077033
    217 H125        37.6550   -24.3820   -11.2410 hc        14 MOL       0.077033
    218 O18         40.2060   -24.7770   -10.4180 os        14 MOL      -0.439933
    219 H126        38.7250   -24.5160    -8.9850 h1        14 MOL       0.048033
    220 H127        39.7010   -23.0590    -9.3580 h1        14 MOL       0.048033
    221 C72         41.1590   -25.1690    -9.4360 c3        14 MOL       0.108400
    222 C73         42.2080   -26.0890   -10.0920 c3        14 MOL       0.126733
    223 H128        40.6460   -25.7130    -8.6270 h1        14 MOL       0.043200
    224 H129        41.6500   -24.2730    -9.0240 h1        14 MOL       0.043200
    225 O19         43.1760   -26.5030    -9.1320 os        14 MOL      -0.427267
    226 H130        42.7140   -25.5480   -10.9070 h1        14 MOL       0.054033
    227 H131        41.7050   -26.9780   -10.5030 h1        14 MOL       0.054033
    228 C74         44.0880   -27.3650    -9.8000 c3        14 MOL       0.105733
    229 C75         45.1860   -27.8660    -8.8340 c3        14 MOL       0.110067
    230 H132        44.5580   -26.8160   -10.6310 h1        14 MOL       0.053867
    231 H133        43.5350   -28.2280   -10.2010 h1        14 MOL       0.053867
    232 O20         46.0530   -28.7220    -9.5610 os        14 MOL      -0.418933
    233 H134        44.7300   -28.4240    -8.0010 h1        14 MOL       0.056200
    234 H135        45.7560   -27.0100    -8.4380 h1        14 MOL       0.056200
    235 C76         47.0940   -29.1970    -8.7170 c3        14 MOL       0.130067
    236 C77         47.9830   -30.1140    -9.5480 c3        14 MOL       0.097733
    237 H136        46.6650   -29.7570    -7.8740 h1        14 MOL       0.053200
    238 H137        47.6740   -28.3430    -8.3360 h1        14 MOL       0.053200
    239 O21         49.0700   -30.6170    -8.7550 os        14 MOL      -0.426267
    240 H138        47.3930   -30.9570    -9.9430 h1        14 MOL       0.049200
    241 H139        48.3930   -29.5270   -10.3860 h1        14 MOL       0.049200
    242 C78         49.9710   -31.3310    -9.6150 c3        14 MOL       0.101733
    243 C79         51.2560   -31.7830    -8.8140 c3        14 MOL       0.175133
    244 H140        50.2800   -30.6440   -10.4160 h1        14 MOL       0.049367
    245 H141        49.4630   -32.2030   -10.0560 h1        14 MOL       0.049367
    246 N5          52.3100   -32.4550    -9.6710 nh        14 MOL      -0.727933
    247 H142        51.7000   -30.8850    -8.3670 h1        14 MOL       0.083867
    248 H143        50.9520   -32.4690    -8.0080 h1        14 MOL       0.083867
    249 H144        52.5240   -33.4170    -9.4120 hn        14 MOL       0.446133
    250 N6          11.8260     9.6920    18.6380 n         14 MOL      -0.572567
    251 H145        13.3650     9.2890    17.3370 h1        14 MOL       0.076533
    252 H146        12.5420     7.8700    18.0210 h1        14 MOL       0.076533
    253 C80         12.4550     9.7960    19.8090 c         14 MOL       0.658433
    254 H147        10.9740    10.1770    18.4850 hn        14 MOL       0.308167
    255 O22         13.5150     9.1850    19.9840 o         14 MOL      -0.605100
    256 C81         11.8920    10.6490    20.9280 c3        14 MOL      -0.159400
    257 C82         12.8530    10.6290    22.1290 c3        14 MOL       0.140400
    258 H148        10.9010    10.2620    21.2100 hc        14 MOL       0.077033
    259 H149        11.7410    11.6740    20.5560 hc        14 MOL       0.077033
    260 O23         12.3370    11.4410    23.2110 os        14 MOL      -0.439933
    261 H150        13.8270    11.0240    21.8060 h1        14 MOL       0.048033
    262 H151        12.9790     9.5930    22.4740 h1        14 MOL       0.048033
    263 C83         13.2520    11.4240    24.2440 c3        14 MOL       0.108400
    264 C84         12.7650    12.2790    25.3490 c3        14 MOL       0.126733
    265 H152        14.2130    11.8240    23.8880 h1        14 MOL       0.043200
    266 H153        13.3970    10.3980    24.6120 h1        14 MOL       0.043200
    267 O24         13.8020    12.1830    26.2350 os        14 MOL      -0.427267
    268 H154        11.8210    11.9040    25.7770 h1        14 MOL       0.054033
    269 H155        12.6450    13.3180    25.0000 h1        14 MOL       0.054033
    270 C85         13.6650    12.9680    27.2950 c3        14 MOL       0.105733
    271 C86         14.9160    12.7730    27.9230 c3        14 MOL       0.110067
    272 H156        13.5620    14.0200    26.9960 h1        14 MOL       0.053867
    273 H157        12.8320    12.6660    27.9480 h1        14 MOL       0.053867
    274 O25         14.8200    13.5920    28.9270 os        14 MOL      -0.418933
    275 C87         15.9040    13.5490    29.7190 c3        14 MOL       0.130067
    276 H158        15.7360    13.0640    27.2490 h1        14 MOL       0.056200
    277 H159        15.0290    11.7240    28.2350 h1        14 MOL       0.056200
    278 C88         15.4630    14.4530    30.7260 c3        14 MOL       0.097733
    279 H160        16.8260    13.8910    29.2180 h1        14 MOL       0.053200
    280 H161        16.0390    12.5410    30.1430 h1        14 MOL       0.053200
    281 O26         16.3770    14.4520    31.7090 os        14 MOL      -0.426267
    282 H162        14.5150    14.0520    31.1200 h1        14 MOL       0.049200
    283 H163        15.2980    15.4540    30.3140 h1        14 MOL       0.049200
    284 C89         15.8030    15.0980    32.7670 c3        14 MOL       0.101733
    285 C90         16.5650    14.6680    33.9980 c3        14 MOL       0.175133
    286 H164        14.7910    14.7180    32.8580 h1        14 MOL       0.049367
    287 H165        15.7750    16.1940    32.6310 h1        14 MOL       0.049367
    288 N7          15.8590    15.1120    35.1940 nh        14 MOL      -0.727933
    289 H166        16.5800    13.5790    33.9980 h1        14 MOL       0.083867
    290 H167        17.5960    15.0550    33.9610 h1        14 MOL       0.083867
    291 H168        16.3120    15.8200    35.7720 hn        14 MOL       0.446133
    292 N8         -17.9990    15.7430   -10.7810 n         14 MOL      -0.572567
    293 H169       -16.0900    16.2420    -9.9780 h1        14 MOL       0.076533
    294 H170       -16.9950    14.9860    -9.0650 h1        14 MOL       0.076533
    295 C91        -18.9240    16.4940   -10.1710 c         14 MOL       0.658433
    296 H171       -18.0810    15.5840   -11.7940 hn        14 MOL       0.308167
    297 O27        -18.8030    16.7970    -8.9780 o         14 MOL      -0.605100
    298 C92        -20.1290    16.9840   -10.9480 c3        14 MOL      -0.159400
    299 C93        -20.9060    18.0370   -10.1670 c3        14 MOL       0.140400
    300 H172       -20.7860    16.1250   -11.1590 hc        14 MOL       0.077033
    301 H173       -19.7950    17.3760   -11.9210 hc        14 MOL       0.077033
    302 O28        -22.0130    18.4370   -10.9640 os        14 MOL      -0.439933
    303 H174       -20.2570    18.9030    -9.9630 h1        14 MOL       0.048033
    304 H175       -21.2630    17.6110    -9.2140 h1        14 MOL       0.048033
    305 C94        -22.7180    19.3800   -10.2890 c3        14 MOL       0.108400
    306 C95        -23.8540    19.7920   -11.1180 c3        14 MOL       0.126733
    307 H176       -22.0840    20.2550   -10.0870 h1        14 MOL       0.043200
    308 H177       -23.0920    18.9690    -9.3410 h1        14 MOL       0.043200
    309 O29        -24.4080    20.6980   -10.3010 os        14 MOL      -0.427267
    310 H178       -23.5190    20.2470   -12.0630 h1        14 MOL       0.054033
    311 H179       -24.5360    18.9480   -11.3110 h1        14 MOL       0.054033
    312 C96        -25.4950    21.2620   -10.7910 c3        14 MOL       0.105733
    313 C97        -25.8160    22.1340    -9.6930 c3        14 MOL       0.110067
    314 H180       -25.2850    21.8320   -11.7070 h1        14 MOL       0.053867
    315 H181       -26.2920    20.5240   -10.9620 h1        14 MOL       0.053867
    316 O30        -26.8930    22.7280   -10.0930 os        14 MOL      -0.418933
    317 H182       -24.9960    22.8470    -9.5190 h1        14 MOL       0.056200
    318 H183       -26.0020    21.5380    -8.7900 h1        14 MOL       0.056200
    319 C98        -27.4380    23.6150    -9.1810 c3        14 MOL       0.130067
    320 C99        -28.5750    23.9000   -10.0120 c3        14 MOL       0.097733
    321 H184       -26.8080    24.4940    -8.9980 h1        14 MOL       0.053200
    322 H185       -27.7340    23.1210    -8.2440 h1        14 MOL       0.053200
    323 O31        -29.5520    24.7680    -9.5030 os        14 MOL      -0.426267
    324 H186       -29.0460    22.9270   -10.2050 h1        14 MOL       0.049200
    325 H187       -28.1980    24.3020   -10.9650 h1        14 MOL       0.049200
    326 C100       -30.3410    24.6290   -10.6190 c3        14 MOL       0.101733
    327 C101       -31.7010    25.1480   -10.7500 c3        14 MOL       0.175133
    328 H188       -30.4720    23.5530   -10.7580 h1        14 MOL       0.049367
    329 H189       -29.7690    25.0300   -11.4740 h1        14 MOL       0.049367
    330 N9         -31.8570    24.5600   -12.0510 nh        14 MOL      -0.727933
    331 H190       -32.3760    24.7220   -10.0010 h1        14 MOL       0.083867
    332 H191       -31.7040    26.2570   -10.7490 h1        14 MOL       0.083867
    333 H192       -31.0330    24.6640   -12.6590 hn        14 MOL       0.446133
    334 C102        53.1180   -31.8680   -10.7680 ca        14 MOL       0.290933
    335 C103        54.0400   -32.8120   -11.3450 ca        14 MOL      -0.232667
    336 H193        54.0940   -33.7840   -10.9760 ha        14 MOL       0.158333
    337 C104        54.8220   -32.4460   -12.3310 ca        14 MOL       0.006000
    338 H194        55.5060   -33.1250   -12.7570 ha        14 MOL       0.178333
    339 C105        54.7310   -31.1300   -12.8310 ca        14 MOL      -0.249867
    340 C106        53.9070   -30.2570   -12.3640 ca        14 MOL       0.033000
    341 H195        53.8790   -29.2710   -12.7760 ha        14 MOL       0.198667
    342 C107        53.0980   -30.6040   -11.3020 ca        14 MOL      -0.269867
    343 N10         55.4700   -30.8190   -13.7290 no        14 MOL       0.326533
    344 O32         55.4080   -29.6670   -14.3690 o         14 MOL      -0.206833
    345 O33         56.2610   -31.6030   -14.0350 o         14 MOL      -0.206833
    346 N11         52.3670   -29.5980   -10.8880 no        14 MOL       0.318867
    347 O34         52.2610   -29.3510    -9.6470 o         14 MOL      -0.205167
    348 O35         51.6770   -28.9930   -11.6200 o         14 MOL      -0.205167
    349 C108       -32.7020    23.4890   -12.2920 ca        14 MOL       0.290933
    350 C109       -34.0510    23.5190   -11.7850 ca        14 MOL      -0.232667
    351 H196       -34.3940    24.3260   -11.2230 ha        14 MOL       0.158333
    352 C110       -34.8430    22.5000   -12.0460 ca        14 MOL       0.006000
    353 H197       -35.8500    22.4760   -11.6890 ha        14 MOL       0.178333
    354 C111       -34.3330    21.4180   -12.8270 ca        14 MOL      -0.249867
    355 C112       -33.1240    21.3800   -13.2900 ca        14 MOL       0.033000
    356 H198       -32.7880    20.5430   -13.8600 ha        14 MOL       0.198667
    357 C113       -32.2770    22.4170   -13.0020 ca        14 MOL      -0.269867
    358 N12        -35.0640    20.4800   -13.0540 no        14 MOL       0.326533
    359 O36        -34.6940    19.4720   -13.8060 o         14 MOL      -0.206833
    360 O37        -36.1240    20.5000   -12.5790 o         14 MOL      -0.206833
    361 N13        -30.9970    22.2390   -13.4140 no        14 MOL       0.318867
    362 O38        -30.0170    22.7970   -12.7450 o         14 MOL      -0.205167
    363 O39        -30.7350    21.4460   -14.2300 o         14 MOL      -0.205167
    364 C114        14.5870    14.5680    35.6330 ca        14 MOL       0.290933
    365 C115        13.7820    13.4430    34.9690 ca        14 MOL      -0.269867
    366 C116        12.6100    13.1100    35.4120 ca        14 MOL       0.033000
    367 H199        12.0600    12.3170    34.9620 ha        14 MOL       0.198667
    368 C117        12.1400    13.7300    36.5180 ca        14 MOL      -0.249867
    369 C118        12.8010    14.6810    37.1650 ca        14 MOL       0.006000
    370 H200        12.3790    15.1080    38.0300 ha        14 MOL       0.178333
    371 C119        14.0560    15.1290    36.6970 ca        14 MOL      -0.232667
    372 H201        14.5510    15.9030    37.1880 ha        14 MOL       0.158333
    373 N14         11.0690    13.3780    36.9830 no        14 MOL       0.326533
    374 O40         10.1950    12.6060    36.3540 o         14 MOL      -0.206833
    375 O41         10.8130    13.7940    38.0180 o         14 MOL      -0.206833
    376 N15         14.2390    12.7020    33.9890 no        14 MOL       0.318867
    377 O42         15.3200    11.9930    34.2720 o         14 MOL      -0.205167
    378 O43         13.6920    12.6220    32.9400 o         14 MOL      -0.205167
@<TRIPOS>BOND
     1     1    10 1   
     2     1    13 1   
     3     1    91 1   
     4     2    11 1   
     5     2    12 1   
     6     2    92 1   
     7     3    14 1   
     8     3    15 1   
     9     3    97 1   
    10     4     5 ar  
    11     4     9 ar  
    12     4    15 1   
    13     5     6 ar  
    14     5    88 1   
    15     6     7 ar  
    16     6    11 1   
    17     7     8 ar  
    18     7    89 1   
    19     8     9 ar  
    20     8    10 1   
    21     9    90 1   
    22    10    73 2   
    23    11    74 2   
    24    12    54 1   
    25    12    93 1   
    26    12    94 1   
    27    13    35 1   
    28    13    95 1   
    29    13    96 1   
    30    14    16 1   
    31    14    98 1   
    32    14    99 1   
    33    15    75 2   
    34    16    17 1   
    35    16   100 1   
    36    16   101 1   
    37    17    18 1   
    38    17   102 1   
    39    17   103 1   
    40    18    19 1   
    41    18   104 1   
    42    18   105 1   
    43    19    20 1   
    44    19   106 1   
    45    19   107 1   
    46    20    21 1   
    47    20   108 1   
    48    20   109 1   
    49    21    22 1   
    50    21   110 1   
    51    21   111 1   
    52    22    23 1   
    53    22   112 1   
    54    22   113 1   
    55    23    24 1   
    56    23   114 1   
    57    23   115 1   
    58    24    25 1   
    59    24   116 1   
    60    24   117 1   
    61    25    26 1   
    62    25   118 1   
    63    25   119 1   
    64    26    76 1   
    65    26   120 1   
    66    26   121 1   
    67    27    28 1   
    68    27    76 1   
    69    27   122 1   
    70    27   123 1   
    71    28    77 1   
    72    28   124 1   
    73    28   125 1   
    74    29    30 1   
    75    29    77 1   
    76    29   126 1   
    77    29   127 1   
    78    30    78 1   
    79    30   128 1   
    80    30   129 1   
    81    31    32 1   
    82    31    78 1   
    83    31   130 1   
    84    31   131 1   
    85    32    79 1   
    86    32   132 1   
    87    32   133 1   
    88    33    34 1   
    89    33    79 1   
    90    33   134 1   
    91    33   135 1   
    92    34   292 1   
    93    34   293 1   
    94    34   294 1   
    95    35    36 1   
    96    35   136 1   
    97    35   137 1   
    98    36    37 1   
    99    36   138 1   
   100    36   139 1   
   101    37    38 1   
   102    37   140 1   
   103    37   141 1   
   104    38    39 1   
   105    38   142 1   
   106    38   143 1   
   107    39    40 1   
   108    39   144 1   
   109    39   145 1   
   110    40    41 1   
   111    40   146 1   
   112    40   147 1   
   113    41    42 1   
   114    41   148 1   
   115    41   149 1   
   116    42    43 1   
   117    42   150 1   
   118    42   151 1   
   119    43    44 1   
   120    43   152 1   
   121    43   153 1   
   122    44    45 1   
   123    44   154 1   
   124    44   155 1   
   125    45    80 1   
   126    45   156 1   
   127    45   157 1   
   128    46    47 1   
   129    46    80 1   
   130    46   158 1   
   131    46   159 1   
   132    47    81 1   
   133    47   160 1   
   134    47   161 1   
   135    48    49 1   
   136    48    81 1   
   137    48   162 1   
   138    48   163 1   
   139    49    82 1   
   140    49   164 1   
   141    49   165 1   
   142    50    51 1   
   143    50    82 1   
   144    50   166 1   
   145    50   167 1   
   146    51    83 1   
   147    51   168 1   
   148    51   169 1   
   149    52    53 1   
   150    52    83 1   
   151    52   170 1   
   152    52   171 1   
   153    53   208 1   
   154    53   209 1   
   155    53   210 1   
   156    54    55 1   
   157    54   172 1   
   158    54   173 1   
   159    55    56 1   
   160    55   174 1   
   161    55   175 1   
   162    56    57 1   
   163    56   176 1   
   164    56   177 1   
   165    57    58 1   
   166    57   178 1   
   167    57   179 1   
   168    58    59 1   
   169    58   180 1   
   170    58   181 1   
   171    59    60 1   
   172    59   182 1   
   173    59   183 1   
   174    60    61 1   
   175    60   184 1   
   176    60   185 1   
   177    61    62 1   
   178    61   186 1   
   179    61   187 1   
   180    62    63 1   
   181    62   188 1   
   182    62   189 1   
   183    63    64 1   
   184    63   190 1   
   185    63   191 1   
   186    64    84 1   
   187    64   192 1   
   188    64   193 1   
   189    65    66 1   
   190    65    84 1   
   191    65   194 1   
   192    65   195 1   
   193    66    85 1   
   194    66   196 1   
   195    66   197 1   
   196    67    68 1   
   197    67    85 1   
   198    67   198 1   
   199    67   199 1   
   200    68    86 1   
   201    68   200 1   
   202    68   201 1   
   203    69    70 1   
   204    69    86 1   
   205    69   202 1   
   206    69   203 1   
   207    70    87 1   
   208    70   204 1   
   209    70   205 1   
   210    71    72 1   
   211    71    87 1   
   212    71   206 1   
   213    71   207 1   
   214    72   250 1   
   215    72   251 1   
   216    72   252 1   
   217   208   211 1   
   218   208   212 1   
   219   211   213 2   
   220   211   214 1   
   221   214   215 1   
   222   214   216 1   
   223   214   217 1   
   224   215   218 1   
   225   215   219 1   
   226   215   220 1   
   227   218   221 1   
   228   221   222 1   
   229   221   223 1   
   230   221   224 1   
   231   222   225 1   
   232   222   226 1   
   233   222   227 1   
   234   225   228 1   
   235   228   229 1   
   236   228   230 1   
   237   228   231 1   
   238   229   232 1   
   239   229   233 1   
   240   229   234 1   
   241   232   235 1   
   242   235   236 1   
   243   235   237 1   
   244   235   238 1   
   245   236   239 1   
   246   236   240 1   
   247   236   241 1   
   248   239   242 1   
   249   242   243 1   
   250   242   244 1   
   251   242   245 1   
   252   243   246 1   
   253   243   247 1   
   254   243   248 1   
   255   246   249 1   
   256   246   334 1   
   257   250   253 1   
   258   250   254 1   
   259   253   255 2   
   260   253   256 1   
   261   256   257 1   
   262   256   258 1   
   263   256   259 1   
   264   257   260 1   
   265   257   261 1   
   266   257   262 1   
   267   260   263 1   
   268   263   264 1   
   269   263   265 1   
   270   263   266 1   
   271   264   267 1   
   272   264   268 1   
   273   264   269 1   
   274   267   270 1   
   275   270   271 1   
   276   270   272 1   
   277   270   273 1   
   278   271   274 1   
   279   271   276 1   
   280   271   277 1   
   281   274   275 1   
   282   275   278 1   
   283   275   279 1   
   284   275   280 1   
   285   278   281 1   
   286   278   282 1   
   287   278   283 1   
   288   281   284 1   
   289   284   285 1   
   290   284   286 1   
   291   284   287 1   
   292   285   288 1   
   293   285   289 1   
   294   285   290 1   
   295   288   291 1   
   296   288   364 1   
   297   292   295 1   
   298   292   296 1   
   299   295   297 2   
   300   295   298 1   
   301   298   299 1   
   302   298   300 1   
   303   298   301 1   
   304   299   302 1   
   305   299   303 1   
   306   299   304 1   
   307   302   305 1   
   308   305   306 1   
   309   305   307 1   
   310   305   308 1   
   311   306   309 1   
   312   306   310 1   
   313   306   311 1   
   314   309   312 1   
   315   312   313 1   
   316   312   314 1   
   317   312   315 1   
   318   313   316 1   
   319   313   317 1   
   320   313   318 1   
   321   316   319 1   
   322   319   320 1   
   323   319   321 1   
   324   319   322 1   
   325   320   323 1   
   326   320   324 1   
   327   320   325 1   
   328   323   326 1   
   329   326   327 1   
   330   326   328 1   
   331   326   329 1   
   332   327   330 1   
   333   327   331 1   
   334   327   332 1   
   335   330   333 1   
   336   330   349 1   
   337   334   335 ar  
   338   334   342 ar  
   339   335   336 1   
   340   335   337 ar  
   341   337   338 1   
   342   337   339 ar  
   343   339   340 ar  
   344   339   343 1   
   345   340   341 1   
   346   340   342 ar  
   347   342   346 1   
   348   343   344 1   
   349   343   345 1   
   350   346   347 1   
   351   346   348 1   
   352   349   350 ar  
   353   349   357 ar  
   354   350   351 1   
   355   350   352 ar  
   356   352   353 1   
   357   352   354 ar  
   358   354   355 ar  
   359   354   358 1   
   360   355   356 1   
   361   355   357 ar  
   362   357   361 1   
   363   358   359 1   
   364   358   360 1   
   365   361   362 1   
   366   361   363 1   
   367   364   365 ar  
   368   364   371 ar  
   369   365   366 ar  
   370   365   376 1   
   371   366   367 1   
   372   366   368 ar  
   373   368   369 ar  
   374   368   373 1   
   375   369   370 1   
   376   369   371 ar  
   377   371   372 1   
   378   373   374 1   
   379   373   375 1   
   380   376   377 1   
   381   376   378 1   
@<TRIPOS>SUBSTRUCTURE
     1 MOL         1 TEMP              0 ****  ****    0 ROOT
