@<TRIPOS>MOLECULE
MOL
  378   381     1     0     0
SMALL
bcc


@<TRIPOS>ATOM
      1 N            5.2140   -12.7390    -7.1240 n         11 MOL      -0.558233
      2 N1           6.0400   -10.2820    -1.1180 n         11 MOL      -0.558233
      3 N2           0.9900    -8.6310    -4.4680 n         11 MOL      -0.558233
      4 C            2.7610   -10.2750    -4.6200 ca        11 MOL      -0.157600
      5 C1           3.1510   -10.1270    -3.2810 ca        11 MOL      -0.037667
      6 C2           4.3610   -10.6480    -2.8140 ca        11 MOL      -0.157600
      7 C3           5.1810   -11.3540    -3.7030 ca        11 MOL      -0.037667
      8 C4           4.8120   -11.5460    -5.0420 ca        11 MOL      -0.157600
      9 C5           3.5960   -10.9950    -5.4860 ca        11 MOL      -0.037667
     10 C6           5.7340   -12.3150    -5.9650 c         11 MOL       0.668700
     11 C7           4.7400   -10.4760    -1.3670 c         11 MOL       0.668700
     12 C8           6.6020   -10.2140     0.2080 c3        11 MOL       0.084000
     13 C9           5.9510   -13.4230    -8.1660 c3        11 MOL       0.084000
     14 C10         -0.2420    -8.0350    -4.8660 c3        11 MOL       0.084000
     15 C11          1.4570    -9.7000    -5.1250 c         11 MOL       0.668700
     16 C12          6.7980   -14.6240    -7.7280 c3        11 MOL      -0.105400
     17 C13          7.4040   -15.1390    -9.0320 c3        11 MOL      -0.077400
     18 C14          8.2930   -16.3560    -8.8360 c3        11 MOL      -0.078733
     19 C15          8.7560   -16.7500   -10.2430 c3        11 MOL      -0.079400
     20 C16          9.6620   -17.9780   -10.2340 c3        11 MOL      -0.079067
     21 C17         10.0040   -18.2740   -11.6990 c3        11 MOL      -0.079400
     22 C18         10.9080   -19.4980   -11.8150 c3        11 MOL      -0.079400
     23 C19         11.1690   -19.7420   -13.3090 c3        11 MOL      -0.078400
     24 C20         12.0710   -20.9610   -13.5000 c3        11 MOL      -0.078400
     25 C21         12.2800   -21.1790   -15.0040 c3        11 MOL      -0.084400
     26 C22         13.1870   -22.3940   -15.2240 c3        11 MOL       0.133400
     27 C23         14.2000   -23.6770   -16.8270 c3        11 MOL       0.128400
     28 C24         14.3460   -23.9040   -18.2760 c3        11 MOL       0.127400
     29 C25         15.4650   -25.3930   -19.5100 c3        11 MOL       0.129400
     30 C26         16.3590   -26.4520   -19.2080 c3        11 MOL       0.118067
     31 C27         17.5470   -27.9740   -20.2500 c3        11 MOL       0.128733
     32 C28         17.7560   -28.4270   -21.6160 c3        11 MOL       0.128400
     33 C29         18.8600   -30.0090   -22.8290 c3        11 MOL       0.105400
     34 C30         19.8280   -31.1690   -22.6810 c3        11 MOL       0.085000
     35 C31          6.0330    -9.1050     1.1060 c3        11 MOL      -0.105400
     36 C32          6.8100    -9.2510     2.4160 c3        11 MOL      -0.077400
     37 C33          6.4090    -8.2280     3.4720 c3        11 MOL      -0.078733
     38 C34          7.3170    -8.5180     4.6740 c3        11 MOL      -0.079400
     39 C35          7.0690    -7.5740     5.8510 c3        11 MOL      -0.079067
     40 C36          8.0730    -7.9850     6.9360 c3        11 MOL      -0.079400
     41 C37          7.9520    -7.1160     8.1890 c3        11 MOL      -0.079400
     42 C38          9.0210    -7.6140     9.1770 c3        11 MOL      -0.078400
     43 C39          9.0040    -6.8090    10.4820 c3        11 MOL      -0.078400
     44 C40         10.1160    -7.3710    11.3850 c3        11 MOL      -0.084400
     45 C41         10.1700    -6.6140    12.7220 c3        11 MOL       0.133400
     46 C42         11.3130    -6.5250    14.7300 c3        11 MOL       0.128400
     47 C43         12.4340    -7.1240    15.4770 c3        11 MOL       0.127400
     48 C44         13.4090    -6.8300    17.4470 c3        11 MOL       0.129400
     49 C45         13.2190    -6.0050    18.5860 c3        11 MOL       0.118067
     50 C46         14.1700    -5.7120    20.5470 c3        11 MOL       0.128733
     51 C47         15.3100    -6.2490    21.2590 c3        11 MOL       0.128400
     52 C48         16.4240    -6.0140    23.2220 c3        11 MOL       0.105400
     53 C49         16.3510    -5.2320    24.5070 c3        11 MOL       0.085000
     54 C50         -0.7390    -7.0600    -3.7960 c3        11 MOL      -0.105400
     55 C51         -2.0590    -6.4530    -4.2710 c3        11 MOL      -0.077400
     56 C52         -2.5800    -5.4790    -3.2120 c3        11 MOL      -0.078733
     57 C53         -3.9050    -4.8830    -3.6990 c3        11 MOL      -0.079400
     58 C54         -4.4460    -3.9100    -2.6510 c3        11 MOL      -0.079067
     59 C55         -5.7690    -3.3330    -3.1600 c3        11 MOL      -0.079400
     60 C56         -6.3360    -2.3570    -2.1270 c3        11 MOL      -0.079400
     61 C57         -7.6590    -1.7960    -2.6640 c3        11 MOL      -0.078400
     62 C58         -8.2600    -0.8130    -1.6540 c3        11 MOL      -0.078400
     63 C59         -9.5770    -0.2760    -2.2270 c3        11 MOL      -0.084400
     64 C60        -10.2140     0.7150    -1.2430 c3        11 MOL       0.133400
     65 C61        -12.0410     2.0950    -0.9430 c3        11 MOL       0.128400
     66 C62        -13.2870     2.5560    -1.5810 c3        11 MOL       0.127400
     67 C63        -14.9540     3.9350    -1.1220 c3        11 MOL       0.129400
     68 C64        -15.3530     4.8050    -0.0650 c3        11 MOL       0.118067
     69 C65        -17.0240     6.1890     0.3950 c3        11 MOL       0.128733
     70 C66        -18.2670     6.6630    -0.2570 c3        11 MOL       0.128400
     71 C67        -20.1180     8.0680    -0.0130 c3        11 MOL       0.105400
     72 C68        -20.8640     9.1050     0.9190 c3        11 MOL       0.085000
     73 O            6.8980   -12.5610    -5.6420 o         11 MOL      -0.606433
     74 O1           3.8840   -10.5170    -0.4810 o         11 MOL      -0.606433
     75 O2           0.8700   -10.1920    -6.0890 o         11 MOL      -0.606433
     76 O5          13.3660   -22.6040   -16.6320 os        11 MOL      -0.428267
     77 O6          15.1940   -24.9720   -18.2950 os        11 MOL      -0.427267
     78 O7          16.6740   -26.9450   -20.3920 os        11 MOL      -0.429267
     79 O8          18.6300   -29.4730   -21.5410 os        11 MOL      -0.425267
     80 O9          11.2300    -7.1700    13.5140 os        11 MOL      -0.428267
     81 O10         12.4340    -6.4280    16.6560 os        11 MOL      -0.427267
     82 O11         14.2000    -6.3940    19.3860 os        11 MOL      -0.429267
     83 O12         15.3300    -5.5980    22.4420 os        11 MOL      -0.425267
     84 O13        -11.4390     1.1990    -1.8060 os        11 MOL      -0.428267
     85 O14        -13.8180     3.4330    -0.6700 os        11 MOL      -0.427267
     86 O15        -16.4900     5.3110    -0.5170 os        11 MOL      -0.429267
     87 O16        -18.8860     7.5670     0.5950 os        11 MOL      -0.425267
     88 H253         2.5030    -9.6150    -2.5820 ha        11 MOL       0.163333
     89 H254         6.1130   -11.7760    -3.3460 ha        11 MOL       0.163333
     90 H255         3.2960   -11.1020    -6.5210 ha        11 MOL       0.163333
     91 H250         4.2360   -12.5630    -7.2920 hn        11 MOL       0.311167
     92 H251         6.6490   -10.1220    -1.9130 hn        11 MOL       0.311167
     93 H252         1.5890    -8.2110    -3.7760 hn        11 MOL       0.311167
     94 H6           6.6340   -12.6970    -8.6300 h1        11 MOL       0.064700
     95 H7           5.2280   -13.7620    -8.9200 h1        11 MOL       0.064700
     96 H8           6.1660   -15.4000    -7.2720 hc        11 MOL       0.046033
     97 H9           7.5850   -14.3150    -7.0230 hc        11 MOL       0.046033
     98 H10          7.9980   -14.3370    -9.4940 hc        11 MOL       0.043367
     99 H11          6.5820   -15.4130    -9.7080 hc        11 MOL       0.043367
    100 H12          7.7160   -17.1740    -8.3850 hc        11 MOL       0.040867
    101 H13          9.1510   -16.1060    -8.1960 hc        11 MOL       0.040867
    102 H14          7.8680   -16.9730   -10.8520 hc        11 MOL       0.040700
    103 H15          9.3010   -15.9080   -10.6940 hc        11 MOL       0.040700
    104 H16         10.5760   -17.7730    -9.6590 hc        11 MOL       0.040033
    105 H17          9.1300   -18.8350    -9.7970 hc        11 MOL       0.040033
    106 H18         10.5130   -17.4040   -12.1380 hc        11 MOL       0.040367
    107 H19          9.0710   -18.4650   -12.2480 hc        11 MOL       0.040367
    108 H20         10.4050   -20.3740   -11.3790 hc        11 MOL       0.039700
    109 H21         11.8550   -19.3140   -11.2870 hc        11 MOL       0.039700
    110 H22         10.2100   -19.9190   -13.8160 hc        11 MOL       0.041700
    111 H23         11.6550   -18.8580   -13.7460 hc        11 MOL       0.041700
    112 H24         11.5920   -21.8490   -13.0640 hc        11 MOL       0.040367
    113 H25         13.0390   -20.7870   -13.0090 hc        11 MOL       0.040367
    114 H26         12.7490   -20.2860   -15.4430 hc        11 MOL       0.055033
    115 H27         11.3060   -21.3540   -15.4830 hc        11 MOL       0.055033
    116 H28         14.1630   -22.2120   -14.7490 h1        11 MOL       0.027367
    117 H29         12.7220   -23.2860   -14.7770 h1        11 MOL       0.027367
    118 H30         13.3750   -24.1530   -18.7340 h1        11 MOL       0.041533
    119 H31         14.7940   -23.0290   -18.7730 h1        11 MOL       0.041533
    120 H32         17.2460   -26.0610   -18.6890 h1        11 MOL       0.041033
    121 H33         15.8560   -27.2070   -18.5860 h1        11 MOL       0.041033
    122 H34         16.7980   -28.7550   -22.0420 h1        11 MOL       0.043033
    123 H35         18.1760   -27.6120   -22.2220 h1        11 MOL       0.043033
    124 H36         15.1870   -23.4710   -16.3910 h1        11 MOL       0.039867
    125 H37         13.7740   -24.5790   -16.3650 h1        11 MOL       0.039867
    126 H38         14.5670   -25.7670   -20.0210 h1        11 MOL       0.049700
    127 H39         15.9630   -24.6200   -20.1120 h1        11 MOL       0.049700
    128 H40         18.4930   -27.6290   -19.8020 h1        11 MOL       0.043367
    129 H41         17.1080   -28.7800   -19.6410 h1        11 MOL       0.043367
    130 H42         17.9100   -30.3700   -23.2530 h1        11 MOL       0.032533
    131 H43         19.2920   -29.2390   -23.4870 h1        11 MOL       0.032533
    132 H44          7.6870   -10.0650     0.1160 h1        11 MOL       0.064700
    133 H45          6.4050   -11.1700     0.7140 h1        11 MOL       0.064700
    134 H46          4.9550    -9.2500     1.2730 hc        11 MOL       0.046033
    135 H47          6.2160    -8.1150     0.6640 hc        11 MOL       0.046033
    136 H48          6.6410   -10.2600     2.8190 hc        11 MOL       0.043367
    137 H49          7.8790    -9.1250     2.1970 hc        11 MOL       0.043367
    138 H50          5.3510    -8.3500     3.7430 hc        11 MOL       0.040867
    139 H51          6.5840    -7.2110     3.0980 hc        11 MOL       0.040867
    140 H52          7.1480    -9.5520     5.0080 hc        11 MOL       0.040700
    141 H53          8.3630    -8.4090     4.3540 hc        11 MOL       0.040700
    142 H54          7.2500    -6.5330     5.5470 hc        11 MOL       0.040033
    143 H55          6.0380    -7.6810     6.2180 hc        11 MOL       0.040033
    144 H56          7.8960    -9.0350     7.2110 hc        11 MOL       0.040367
    145 H57          9.0900    -7.8830     6.5320 hc        11 MOL       0.040367
    146 H58          8.1380    -6.0620     7.9330 hc        11 MOL       0.039700
    147 H59          6.9470    -7.2200     8.6250 hc        11 MOL       0.039700
    148 H60          8.8360    -8.6730     9.4060 hc        11 MOL       0.041700
    149 H61         10.0110    -7.5120     8.7090 hc        11 MOL       0.041700
    150 H62          9.1980    -5.7480    10.2700 hc        11 MOL       0.040367
    151 H63          8.0270    -6.9160    10.9760 hc        11 MOL       0.040367
    152 H64         10.3670    -5.5480    12.5360 h1        11 MOL       0.027367
    153 H65          9.2110    -6.7260    13.2500 h1        11 MOL       0.027367
    154 H66         13.3810    -6.9790    14.9330 h1        11 MOL       0.041533
    155 H67         12.2570    -8.1970    15.6530 h1        11 MOL       0.041533
    156 H68         12.2340    -6.1930    19.0360 h1        11 MOL       0.041033
    157 H69         13.3210    -4.9440    18.3140 h1        11 MOL       0.041033
    158 H70         16.2280    -6.0530    20.6890 h1        11 MOL       0.043033
    159 H71         15.1840    -7.3300    21.4100 h1        11 MOL       0.043033
    160 H72          9.9220    -8.4360    11.5780 hc        11 MOL       0.055033
    161 H73         11.0820    -7.2640    10.8700 hc        11 MOL       0.055033
    162 H74         10.3810    -6.6580    15.2970 h1        11 MOL       0.039867
    163 H75         11.5080    -5.4540    14.5820 h1        11 MOL       0.039867
    164 H76         14.3940    -6.6460    16.9970 h1        11 MOL       0.049700
    165 H77         13.3000    -7.8890    17.7170 h1        11 MOL       0.049700
    166 H78         13.2360    -5.9060    21.0970 h1        11 MOL       0.043367
    167 H79         14.2960    -4.6310    20.3760 h1        11 MOL       0.043367
    168 H80         17.3660    -5.7920    22.6970 h1        11 MOL       0.032533
    169 H81         16.3560    -7.0940    23.4290 h1        11 MOL       0.032533
    170 H82         -0.9830    -8.8290    -5.0400 h1        11 MOL       0.064700
    171 H83         -0.0860    -7.4970    -5.8110 h1        11 MOL       0.064700
    172 H84          0.0030    -6.2620    -3.6450 hc        11 MOL       0.046033
    173 H85         -0.9000    -7.5980    -2.8510 hc        11 MOL       0.046033
    174 H86         -2.7950    -7.2540    -4.4240 hc        11 MOL       0.043367
    175 H87         -1.8970    -5.9180    -5.2170 hc        11 MOL       0.043367
    176 H88         -2.7430    -6.0160    -2.2670 hc        11 MOL       0.040867
    177 H89         -1.8470    -4.6750    -3.0570 hc        11 MOL       0.040867
    178 H90         -3.7410    -4.3480    -4.6460 hc        11 MOL       0.040700
    179 H91         -4.6330    -5.6910    -3.8570 hc        11 MOL       0.040700
    180 H92         -4.6160    -4.4430    -1.7040 hc        11 MOL       0.040033
    181 H93         -3.7240    -3.0960    -2.4920 hc        11 MOL       0.040033
    182 H94         -6.4850    -4.1510    -3.3220 hc        11 MOL       0.040367
    183 H95         -5.5960    -2.8040    -4.1080 hc        11 MOL       0.040367
    184 H96         -5.6220    -1.5360    -1.9650 hc        11 MOL       0.039700
    185 H97         -6.5120    -2.8860    -1.1790 hc        11 MOL       0.039700
    186 H98         -8.3640    -2.6220    -2.8300 hc        11 MOL       0.041700
    187 H99         -7.4750    -1.2750    -3.6140 hc        11 MOL       0.041700
    188 H100        -7.5620     0.0200    -1.4860 hc        11 MOL       0.040367
    189 H101        -8.4530    -1.3300    -0.7030 hc        11 MOL       0.040367
    190 H102       -10.2670    -1.1150    -2.3990 hc        11 MOL       0.055033
    191 H103        -9.3770     0.2340    -3.1810 hc        11 MOL       0.055033
    192 H104        -9.5270     1.5580    -1.0710 h1        11 MOL       0.027367
    193 H105       -10.4200     0.2070    -0.2880 h1        11 MOL       0.027367
    194 H106       -11.3810     2.9560    -0.7660 h1        11 MOL       0.039867
    195 H107       -12.2780     1.6050     0.0110 h1        11 MOL       0.039867
    196 H108       -13.9690     1.7090    -1.7540 h1        11 MOL       0.041533
    197 H109       -13.0670     3.0660    -2.5330 h1        11 MOL       0.041533
    198 H110       -15.7050     3.1470    -1.2770 h1        11 MOL       0.049700
    199 H111       -14.7970     4.5020    -2.0500 h1        11 MOL       0.049700
    200 H112       -14.6010     5.5910     0.0900 h1        11 MOL       0.041033
    201 H113       -15.5100     4.2360     0.8630 h1        11 MOL       0.041033
    202 H114       -16.3350     7.0300     0.5750 h1        11 MOL       0.043367
    203 H115       -17.2530     5.6760     1.3430 h1        11 MOL       0.043367
    204 H116       -18.9280     5.8060    -0.4470 h1        11 MOL       0.043033
    205 H117       -18.0130     7.1520    -1.2080 h1        11 MOL       0.043033
    206 H118       -20.7860     7.2150    -0.2110 h1        11 MOL       0.032533
    207 H119       -19.8650     8.5580    -0.9660 h1        11 MOL       0.032533
    208 N3          20.0670   -31.7610   -23.9550 n         11 MOL      -0.571900
    209 H120        19.3970   -31.9270   -22.0090 h1        11 MOL       0.076533
    210 H121        20.7820   -30.8300   -22.2500 h1        11 MOL       0.076533
    211 C69         21.0000   -32.7060   -24.0900 c         11 MOL       0.657767
    212 H122        19.5360   -31.4760   -24.7440 hn        11 MOL       0.307833
    213 O17         21.6610   -33.0600   -23.1070 o         11 MOL      -0.605100
    214 C70         21.2460   -33.3520   -25.4420 c3        11 MOL      -0.159067
    215 C71         22.5290   -34.2250   -25.4260 c3        11 MOL       0.141733
    216 H123        20.3740   -33.9790   -25.6880 hc        11 MOL       0.076867
    217 H124        21.3000   -32.5660   -26.2110 hc        11 MOL       0.076867
    218 O18         22.7200   -34.8460   -26.7220 os        11 MOL      -0.435933
    219 H125        23.3950   -33.5920   -25.1860 h1        11 MOL       0.048200
    220 H126        22.4240   -35.0050   -24.6590 h1        11 MOL       0.048200
    221 C72         23.8930   -35.6420   -26.7070 c3        11 MOL       0.129733
    222 C73         24.0420   -36.3000   -28.0590 c3        11 MOL       0.128067
    223 H127        24.7710   -35.0110   -26.5010 h1        11 MOL       0.044367
    224 H128        23.8060   -36.4180   -25.9320 h1        11 MOL       0.044367
    225 O19         25.2100   -37.0890   -28.0270 os        11 MOL      -0.431600
    226 H129        23.1650   -36.9370   -28.2570 h1        11 MOL       0.042700
    227 H130        24.1280   -35.5340   -28.8460 h1        11 MOL       0.042700
    228 C74         25.3410   -37.7290   -29.2170 c3        11 MOL       0.119067
    229 C75         26.5480   -38.5360   -29.1360 c3        11 MOL       0.126733
    230 H131        24.4760   -38.3860   -29.3900 h1        11 MOL       0.042200
    231 H132        25.4310   -37.0080   -30.0400 h1        11 MOL       0.042200
    232 O20         26.5600   -39.1490   -30.3420 os        11 MOL      -0.425600
    233 H133        27.4410   -37.9080   -28.9920 h1        11 MOL       0.051033
    234 H134        26.4620   -39.2740   -28.3230 h1        11 MOL       0.051033
    235 C76         27.5870   -39.9980   -30.4470 c3        11 MOL       0.130400
    236 C77         27.3770   -40.6140   -31.7010 c3        11 MOL       0.115400
    237 H135        28.5550   -39.4760   -30.4220 h1        11 MOL       0.048367
    238 H136        27.5490   -40.7600   -29.6600 h1        11 MOL       0.048367
    239 O21         28.3860   -41.4540   -31.6790 os        11 MOL      -0.436267
    240 H137        26.4250   -41.1430   -31.7320 h1        11 MOL       0.046200
    241 H138        27.4410   -39.8770   -32.5150 h1        11 MOL       0.046200
    242 C78         28.5040   -42.2250   -32.8040 c3        11 MOL       0.109400
    243 C79         29.6680   -43.1010   -32.4740 c3        11 MOL       0.208133
    244 H139        27.5970   -42.8300   -32.9530 h1        11 MOL       0.051533
    245 H140        28.7060   -41.6080   -33.6960 h1        11 MOL       0.051533
    246 N4          29.8610   -44.0200   -33.5450 nh        11 MOL      -0.737933
    247 H141        30.5570   -42.5010   -32.2830 h1        11 MOL       0.077033
    248 H142        29.4050   -43.6560   -31.5660 h1        11 MOL       0.077033
    249 H143        29.0860   -44.6120   -33.7330 hn        11 MOL       0.446467
    250 N5          17.4330    -5.5730    25.3520 n         11 MOL      -0.571900
    251 H144        16.3950    -4.1550    24.2910 h1        11 MOL       0.076533
    252 H145        15.4040    -5.4370    25.0270 h1        11 MOL       0.076533
    253 C80         17.4980    -5.0460    26.5720 c         11 MOL       0.657767
    254 H146        18.1420    -6.1930    25.0390 hn        11 MOL       0.307833
    255 O22         16.6100    -4.2730    26.9480 o         11 MOL      -0.605100
    256 C81         18.6480    -5.3660    27.4970 c3        11 MOL      -0.159067
    257 C82         18.5220    -4.5330    28.7780 c3        11 MOL       0.141733
    258 H147        18.6380    -6.4430    27.7260 hc        11 MOL       0.076867
    259 H148        19.5950    -5.1580    26.9750 hc        11 MOL       0.076867
    260 O23         19.6210    -4.8120    29.6680 os        11 MOL      -0.435933
    261 H149        18.5270    -3.4670    28.5130 h1        11 MOL       0.048200
    262 H150        17.5710    -4.7800    29.2730 h1        11 MOL       0.048200
    263 C83         19.4680    -4.0460    30.8090 c3        11 MOL       0.129733
    264 C84         20.6070    -4.3070    31.7000 c3        11 MOL       0.128067
    265 H151        18.5350    -4.3170    31.3230 h1        11 MOL       0.044367
    266 H152        19.4510    -2.9790    30.5510 h1        11 MOL       0.044367
    267 O24         20.3440    -3.5130    32.7860 os        11 MOL      -0.431600
    268 H153        20.6370    -5.3710    31.9890 h1        11 MOL       0.042700
    269 H154        21.5550    -4.0170    31.2180 h1        11 MOL       0.042700
    270 C85         21.2950    -3.6460    33.6870 c3        11 MOL       0.119067
    271 C86         20.8700    -2.8240    34.7760 c3        11 MOL       0.126733
    272 H155        21.3700    -4.6920    34.0220 h1        11 MOL       0.042200
    273 H156        22.2650    -3.3030    33.3010 h1        11 MOL       0.042200
    274 O25         21.8660    -3.0540    35.6110 os        11 MOL      -0.425600
    275 H157        19.9100    -3.1880    35.1740 h1        11 MOL       0.051033
    276 H158        20.7990    -1.7650    34.4910 h1        11 MOL       0.051033
    277 C87         21.7180    -2.4990    36.8360 c3        11 MOL       0.130400
    278 C88         22.9090    -3.0070    37.4550 c3        11 MOL       0.115400
    279 H159        20.8190    -2.8890    37.3410 h1        11 MOL       0.048367
    280 H160        21.7030    -1.3990    36.8050 h1        11 MOL       0.048367
    281 O26         22.8900    -2.6090    38.7620 os        11 MOL      -0.436267
    282 H161        22.8700    -4.1010    37.3880 h1        11 MOL       0.046200
    283 H162        23.8030    -2.6450    36.9470 h1        11 MOL       0.046200
    284 C89         23.9410    -3.2500    39.4590 c3        11 MOL       0.109400
    285 C90         23.8770    -2.8990    40.9490 c3        11 MOL       0.208133
    286 H163        24.9060    -2.9270    39.0380 h1        11 MOL       0.051533
    287 H164        23.8370    -4.3370    39.3440 h1        11 MOL       0.051533
    288 N6          25.0000    -3.5780    41.5970 nh        11 MOL      -0.737933
    289 H165        22.9220    -3.2130    41.3660 h1        11 MOL       0.077033
    290 H166        23.9910    -1.8140    41.0530 h1        11 MOL       0.077033
    291 H167        25.8740    -3.1480    41.4610 hn        11 MOL       0.446467
    292 N7         -22.1000     9.5850     0.2610 n         11 MOL      -0.571900
    293 H168       -20.2110     9.9670     1.1290 h1        11 MOL       0.076533
    294 H169       -21.1260     8.6330     1.8780 h1        11 MOL       0.076533
    295 C91        -22.9320    10.4980     0.8280 c         11 MOL       0.657767
    296 H170       -22.3350     9.2300    -0.6340 hn        11 MOL       0.307833
    297 O27        -22.7040    10.9880     1.9440 o         11 MOL      -0.605100
    298 C92        -24.1940    10.9460     0.0760 c3        11 MOL      -0.159067
    299 C93        -25.0060    12.0220     0.8940 c3        11 MOL       0.141733
    300 H171       -23.8920    11.3440    -0.9060 hc        11 MOL       0.076867
    301 H172       -24.8150    10.0570    -0.1250 hc        11 MOL       0.076867
    302 O28        -26.2080    12.4550     0.1860 os        11 MOL      -0.435933
    303 H173       -25.2970    11.5880     1.8620 h1        11 MOL       0.048200
    304 H174       -24.3600    12.8940     1.0700 h1        11 MOL       0.048200
    305 C94        -26.8930    13.4470     0.9930 c3        11 MOL       0.129733
    306 C95        -28.2120    13.9520     0.2730 c3        11 MOL       0.128067
    307 H175       -27.1540    12.9940     1.9640 h1        11 MOL       0.044367
    308 H176       -26.2130    14.2980     1.1600 h1        11 MOL       0.044367
    309 O29        -28.9230    14.9560     1.0670 os        11 MOL      -0.431600
    310 H177       -27.9460    14.3940    -0.7000 h1        11 MOL       0.042700
    311 H178       -28.8810    13.0930     0.1080 h1        11 MOL       0.042700
    312 C96        -30.1220    15.3470     0.3530 c3        11 MOL       0.119067
    313 C97        -30.9590    16.4160     1.1220 c3        11 MOL       0.126733
    314 H179       -30.7470    14.4530     0.2000 h1        11 MOL       0.042200
    315 H180       -29.8350    15.7560    -0.6280 h1        11 MOL       0.042200
    316 O30        -32.1100    16.6870     0.3210 os        11 MOL      -0.425600
    317 H181       -31.2760    16.0180     2.1000 h1        11 MOL       0.051033
    318 H182       -30.3730    17.3380     1.2660 h1        11 MOL       0.051033
    319 C98        -32.9810    17.6210     0.8890 c3        11 MOL       0.130400
    320 C99        -34.0990    17.6840    -0.0640 c3        11 MOL       0.115400
    321 H183       -33.3510    17.2770     1.8650 h1        11 MOL       0.048367
    322 H184       -32.5050    18.6060     0.9940 h1        11 MOL       0.048367
    323 O31        -34.9360    18.5200     0.4490 os        11 MOL      -0.436267
    324 H185       -33.7630    18.0420    -1.0430 h1        11 MOL       0.046200
    325 H187       -34.5730    16.7030    -0.1580 h1        11 MOL       0.046200
    326 C100       -36.0320    18.5930    -0.3320 c3        11 MOL       0.109400
    327 C101       -36.7840    19.5640     0.4140 c3        11 MOL       0.208133
    328 H188       -35.7840    18.9590    -1.3420 h1        11 MOL       0.051533
    329 H189       -36.5500    17.6130    -0.3890 h1        11 MOL       0.051533
    330 N8         -37.9900    19.8400    -0.1530 nh        11 MOL      -0.737933
    331 H190       -36.9440    19.1890     1.4370 h1        11 MOL       0.077033
    332 H191       -36.1970    20.4880     0.4780 h1        11 MOL       0.077033
    333 H192       -38.2670    19.2790    -0.9140 hn        11 MOL       0.446467
    334 C102        31.0970   -44.3310   -34.2130 ca        11 MOL       0.308267
    335 C103        31.0890   -45.6720   -34.7420 ca        11 MOL      -0.237667
    336 H193        30.2490   -46.2740   -34.6210 ha        11 MOL       0.154667
    337 C104        32.1360   -46.1390   -35.3720 ca        11 MOL       0.007333
    338 H194        32.1440   -47.1260   -35.7650 ha        11 MOL       0.178000
    339 C105        33.2590   -45.3150   -35.5200 ca        11 MOL      -0.255533
    340 C106        33.3170   -44.1050   -35.0680 ca        11 MOL       0.038667
    341 H195        34.1960   -43.5220   -35.2170 ha        11 MOL       0.198667
    342 C107        32.2200   -43.5690   -34.4070 ca        11 MOL      -0.282200
    343 N9          34.2200   -45.7670   -36.1090 no        11 MOL       0.327533
    344 O32         35.3280   -45.0890   -36.2660 o         11 MOL      -0.208500
    345 O34         34.1310   -46.8520   -36.5270 o         11 MOL      -0.208500
    346 N10         32.4260   -42.2870   -34.0820 no        11 MOL       0.321533
    347 O35         31.4320   -41.5090   -33.8170 o         11 MOL      -0.208500
    348 O36         33.4860   -41.8040   -34.2060 o         11 MOL      -0.208500
    349 C108        24.9840    -4.7710    42.4020 ca        11 MOL       0.308267
    350 C109        23.8120    -5.6730    42.8330 ca        11 MOL      -0.282200
    351 C110        24.0300    -6.6890    43.6240 ca        11 MOL       0.038667
    352 H196        23.2340    -7.3310    43.9250 ha        11 MOL       0.198667
    353 C111        25.2930    -6.9560    44.0070 ca        11 MOL      -0.255533
    354 C112        26.3380    -6.2310    43.6560 ca        11 MOL       0.007333
    355 H197        27.2960    -6.5050    43.9830 ha        11 MOL       0.178000
    356 C113        26.1790    -5.1040    42.8450 ca        11 MOL      -0.237667
    357 H198        27.0100    -4.5290    42.5920 ha        11 MOL       0.154667
    358 N11         25.5020    -7.9460    44.6930 no        11 MOL       0.327533
    359 O37         26.7170    -8.2280    44.9230 o         11 MOL      -0.208500
    360 O38         24.6550    -8.6340    45.1250 o         11 MOL      -0.208500
    361 N12         22.5740    -5.5760    42.4630 no        11 MOL       0.321533
    362 O39         21.6400    -6.1800    43.1200 o         11 MOL      -0.208500
    363 O40         22.3210    -5.0790    41.4350 o         11 MOL      -0.208500
    364 C114       -38.8540    20.8530     0.2860 ca        11 MOL       0.308267
    365 C115       -38.6550    21.8980     1.4280 ca        11 MOL      -0.282200
    366 C116       -39.6170    22.7540     1.6470 ca        11 MOL       0.038667
    367 H199       -39.5290    23.4880     2.4140 ha        11 MOL       0.198667
    368 C117       -40.7490    22.7070     0.8880 ca        11 MOL      -0.255533
    369 C118       -40.9590    21.8390    -0.0860 ca        11 MOL       0.007333
    370 H200       -41.8760    21.8640    -0.6370 ha        11 MOL       0.178000
    371 C119       -39.9810    20.8890    -0.3930 ca        11 MOL      -0.237667
    372 H201       -40.1450    20.2050    -1.1620 ha        11 MOL       0.154667
    373 N13        -41.6360    23.5180     1.1220 no        11 MOL       0.327533
    374 O41        -42.6910    23.4480     0.4080 o         11 MOL      -0.208500
    375 O42        -41.5540    24.3340     1.9590 o         11 MOL      -0.208500
    376 N14        -37.5840    22.0700     2.2740 no        11 MOL       0.321533
    377 O43        -37.6090    23.0280     3.1470 o         11 MOL      -0.208500
    378 O44        -36.6410    21.3850     2.2450 o         11 MOL      -0.208500
@<TRIPOS>BOND
     1     1    10 1   
     2     1    13 1   
     3     1    91 1   
     4     2    11 1   
     5     2    12 1   
     6     2    92 1   
     7     3    14 1   
     8     3    15 1   
     9     3    93 1   
    10     4     5 ar  
    11     4     9 ar  
    12     4    15 1   
    13     5     6 ar  
    14     5    88 1   
    15     6     7 ar  
    16     6    11 1   
    17     7     8 ar  
    18     7    89 1   
    19     8     9 ar  
    20     8    10 1   
    21     9    90 1   
    22    10    73 2   
    23    11    74 2   
    24    12    35 1   
    25    12   132 1   
    26    12   133 1   
    27    13    16 1   
    28    13    94 1   
    29    13    95 1   
    30    14    54 1   
    31    14   170 1   
    32    14   171 1   
    33    15    75 2   
    34    16    17 1   
    35    16    96 1   
    36    16    97 1   
    37    17    18 1   
    38    17    98 1   
    39    17    99 1   
    40    18    19 1   
    41    18   100 1   
    42    18   101 1   
    43    19    20 1   
    44    19   102 1   
    45    19   103 1   
    46    20    21 1   
    47    20   104 1   
    48    20   105 1   
    49    21    22 1   
    50    21   106 1   
    51    21   107 1   
    52    22    23 1   
    53    22   108 1   
    54    22   109 1   
    55    23    24 1   
    56    23   110 1   
    57    23   111 1   
    58    24    25 1   
    59    24   112 1   
    60    24   113 1   
    61    25    26 1   
    62    25   114 1   
    63    25   115 1   
    64    26    76 1   
    65    26   116 1   
    66    26   117 1   
    67    27    28 1   
    68    27    76 1   
    69    27   124 1   
    70    27   125 1   
    71    28    77 1   
    72    28   118 1   
    73    28   119 1   
    74    29    30 1   
    75    29    77 1   
    76    29   126 1   
    77    29   127 1   
    78    30    78 1   
    79    30   120 1   
    80    30   121 1   
    81    31    32 1   
    82    31    78 1   
    83    31   128 1   
    84    31   129 1   
    85    32    79 1   
    86    32   122 1   
    87    32   123 1   
    88    33    34 1   
    89    33    79 1   
    90    33   130 1   
    91    33   131 1   
    92    34   208 1   
    93    34   209 1   
    94    34   210 1   
    95    35    36 1   
    96    35   134 1   
    97    35   135 1   
    98    36    37 1   
    99    36   136 1   
   100    36   137 1   
   101    37    38 1   
   102    37   138 1   
   103    37   139 1   
   104    38    39 1   
   105    38   140 1   
   106    38   141 1   
   107    39    40 1   
   108    39   142 1   
   109    39   143 1   
   110    40    41 1   
   111    40   144 1   
   112    40   145 1   
   113    41    42 1   
   114    41   146 1   
   115    41   147 1   
   116    42    43 1   
   117    42   148 1   
   118    42   149 1   
   119    43    44 1   
   120    43   150 1   
   121    43   151 1   
   122    44    45 1   
   123    44   160 1   
   124    44   161 1   
   125    45    80 1   
   126    45   152 1   
   127    45   153 1   
   128    46    47 1   
   129    46    80 1   
   130    46   162 1   
   131    46   163 1   
   132    47    81 1   
   133    47   154 1   
   134    47   155 1   
   135    48    49 1   
   136    48    81 1   
   137    48   164 1   
   138    48   165 1   
   139    49    82 1   
   140    49   156 1   
   141    49   157 1   
   142    50    51 1   
   143    50    82 1   
   144    50   166 1   
   145    50   167 1   
   146    51    83 1   
   147    51   158 1   
   148    51   159 1   
   149    52    53 1   
   150    52    83 1   
   151    52   168 1   
   152    52   169 1   
   153    53   250 1   
   154    53   251 1   
   155    53   252 1   
   156    54    55 1   
   157    54   172 1   
   158    54   173 1   
   159    55    56 1   
   160    55   174 1   
   161    55   175 1   
   162    56    57 1   
   163    56   176 1   
   164    56   177 1   
   165    57    58 1   
   166    57   178 1   
   167    57   179 1   
   168    58    59 1   
   169    58   180 1   
   170    58   181 1   
   171    59    60 1   
   172    59   182 1   
   173    59   183 1   
   174    60    61 1   
   175    60   184 1   
   176    60   185 1   
   177    61    62 1   
   178    61   186 1   
   179    61   187 1   
   180    62    63 1   
   181    62   188 1   
   182    62   189 1   
   183    63    64 1   
   184    63   190 1   
   185    63   191 1   
   186    64    84 1   
   187    64   192 1   
   188    64   193 1   
   189    65    66 1   
   190    65    84 1   
   191    65   194 1   
   192    65   195 1   
   193    66    85 1   
   194    66   196 1   
   195    66   197 1   
   196    67    68 1   
   197    67    85 1   
   198    67   198 1   
   199    67   199 1   
   200    68    86 1   
   201    68   200 1   
   202    68   201 1   
   203    69    70 1   
   204    69    86 1   
   205    69   202 1   
   206    69   203 1   
   207    70    87 1   
   208    70   204 1   
   209    70   205 1   
   210    71    72 1   
   211    71    87 1   
   212    71   206 1   
   213    71   207 1   
   214    72   292 1   
   215    72   293 1   
   216    72   294 1   
   217   208   211 1   
   218   208   212 1   
   219   211   213 2   
   220   211   214 1   
   221   214   215 1   
   222   214   216 1   
   223   214   217 1   
   224   215   218 1   
   225   215   219 1   
   226   215   220 1   
   227   218   221 1   
   228   221   222 1   
   229   221   223 1   
   230   221   224 1   
   231   222   225 1   
   232   222   226 1   
   233   222   227 1   
   234   225   228 1   
   235   228   229 1   
   236   228   230 1   
   237   228   231 1   
   238   229   232 1   
   239   229   233 1   
   240   229   234 1   
   241   232   235 1   
   242   235   236 1   
   243   235   237 1   
   244   235   238 1   
   245   236   239 1   
   246   236   240 1   
   247   236   241 1   
   248   239   242 1   
   249   242   243 1   
   250   242   244 1   
   251   242   245 1   
   252   243   246 1   
   253   243   247 1   
   254   243   248 1   
   255   246   249 1   
   256   246   334 1   
   257   250   253 1   
   258   250   254 1   
   259   253   255 2   
   260   253   256 1   
   261   256   257 1   
   262   256   258 1   
   263   256   259 1   
   264   257   260 1   
   265   257   261 1   
   266   257   262 1   
   267   260   263 1   
   268   263   264 1   
   269   263   265 1   
   270   263   266 1   
   271   264   267 1   
   272   264   268 1   
   273   264   269 1   
   274   267   270 1   
   275   270   271 1   
   276   270   272 1   
   277   270   273 1   
   278   271   274 1   
   279   271   275 1   
   280   271   276 1   
   281   274   277 1   
   282   277   278 1   
   283   277   279 1   
   284   277   280 1   
   285   278   281 1   
   286   278   282 1   
   287   278   283 1   
   288   281   284 1   
   289   284   285 1   
   290   284   286 1   
   291   284   287 1   
   292   285   288 1   
   293   285   289 1   
   294   285   290 1   
   295   288   291 1   
   296   288   349 1   
   297   292   295 1   
   298   292   296 1   
   299   295   297 2   
   300   295   298 1   
   301   298   299 1   
   302   298   300 1   
   303   298   301 1   
   304   299   302 1   
   305   299   303 1   
   306   299   304 1   
   307   302   305 1   
   308   305   306 1   
   309   305   307 1   
   310   305   308 1   
   311   306   309 1   
   312   306   310 1   
   313   306   311 1   
   314   309   312 1   
   315   312   313 1   
   316   312   314 1   
   317   312   315 1   
   318   313   316 1   
   319   313   317 1   
   320   313   318 1   
   321   316   319 1   
   322   319   320 1   
   323   319   321 1   
   324   319   322 1   
   325   320   323 1   
   326   320   324 1   
   327   320   325 1   
   328   323   326 1   
   329   326   327 1   
   330   326   328 1   
   331   326   329 1   
   332   327   330 1   
   333   327   331 1   
   334   327   332 1   
   335   330   333 1   
   336   330   364 1   
   337   334   335 ar  
   338   334   342 ar  
   339   335   336 1   
   340   335   337 ar  
   341   337   338 1   
   342   337   339 ar  
   343   339   340 ar  
   344   339   343 1   
   345   340   341 1   
   346   340   342 ar  
   347   342   346 1   
   348   343   344 1   
   349   343   345 1   
   350   346   347 1   
   351   346   348 1   
   352   349   350 ar  
   353   349   356 ar  
   354   350   351 ar  
   355   350   361 1   
   356   351   352 1   
   357   351   353 ar  
   358   353   354 ar  
   359   353   358 1   
   360   354   355 1   
   361   354   356 ar  
   362   356   357 1   
   363   358   359 1   
   364   358   360 1   
   365   361   362 1   
   366   361   363 1   
   367   364   365 ar  
   368   364   371 ar  
   369   365   366 ar  
   370   365   376 1   
   371   366   367 1   
   372   366   368 ar  
   373   368   369 ar  
   374   368   373 1   
   375   369   370 1   
   376   369   371 ar  
   377   371   372 1   
   378   373   374 1   
   379   373   375 1   
   380   376   377 1   
   381   376   378 1   
@<TRIPOS>SUBSTRUCTURE
     1 MOL         1 TEMP              0 ****  ****    0 ROOT
