@<TRIPOS>MOLECULE
MOL
  219   219     1     0     0
SMALL
bcc


@<TRIPOS>ATOM
      1 N           18.6420     5.8590   -19.8320 n         18 MOL      -0.563567
      2 N1          13.3450     9.3720   -18.4510 n         18 MOL      -0.563567
      3 N2          12.4660     7.5060   -23.1000 n         18 MOL      -0.563567
      4 C           14.4380     6.9650   -21.8220 ca        18 MOL      -0.153933
      5 C1          13.9970     7.6130   -20.6560 ca        18 MOL      -0.041000
      6 C2          14.8720     7.8780   -19.5920 ca        18 MOL      -0.153933
      7 C3          16.2060     7.4640   -19.7030 ca        18 MOL      -0.041000
      8 C4          16.6700     6.8020   -20.8500 ca        18 MOL      -0.153933
      9 C5          15.7790     6.5700   -21.9060 ca        18 MOL      -0.041000
     10 C6          18.0990     6.3340   -20.9580 c         18 MOL       0.669367
     11 C7          14.3900     8.5450   -18.3250 c         18 MOL       0.669367
     12 C8          12.6660    10.0290   -17.3340 c3        18 MOL       0.084333
     13 C9          19.9900     5.3980   -19.8420 c3        18 MOL       0.084333
     14 C10         11.5040     7.2920   -24.1340 c3        18 MOL       0.084333
     15 C11         13.4860     6.6550   -22.9520 c         18 MOL       0.669367
     16 C12         10.2730     8.1480   -23.8700 c3        18 MOL      -0.104400
     17 C13          9.2520     7.9150   -24.9760 c3        18 MOL      -0.077400
     18 C14          8.0330     8.7780   -24.6790 c3        18 MOL      -0.078400
     19 C15          6.9790     8.5790   -25.7620 c3        18 MOL      -0.079400
     20 C16          5.7860     9.4580   -25.4150 c3        18 MOL      -0.078733
     21 C17          4.7020     9.2990   -26.4720 c3        18 MOL      -0.079400
     22 C18          3.5340    10.1960   -26.0800 c3        18 MOL      -0.079400
     23 C19          2.4230    10.0750   -27.1170 c3        18 MOL      -0.078400
     24 C20          1.2730    10.9850   -26.6980 c3        18 MOL      -0.078400
     25 C21          0.1540    10.8850   -27.7280 c3        18 MOL      -0.084400
     26 C22         -0.9920    11.8040   -27.3020 c3        18 MOL       0.133400
     27 C23         -3.0780    12.5490   -27.9030 c3        18 MOL       0.128400
     28 C24         -4.1170    12.4350   -28.9360 c3        18 MOL       0.130400
     29 C25         -6.1020    13.2870   -29.3670 c3        18 MOL       0.130400
     30 C26         -7.0280    14.2030   -28.8010 c3        18 MOL       0.129400
     31 C27         -9.0170    14.9500   -29.4250 c3        18 MOL       0.130400
     32 C28         -9.8560    14.6970   -30.5560 c3        18 MOL       0.128400
     33 C29        -11.8150    15.2840   -31.3880 c3        18 MOL       0.094400
     34 C30        -12.9470    16.1590   -31.0270 c3        18 MOL       0.125400
     35 C31         20.6200     5.4670   -18.4520 c3        18 MOL      -0.104400
     36 C32         22.0490     4.9430   -18.5830 c3        18 MOL      -0.077400
     37 C33         22.7640     4.9800   -17.2330 c3        18 MOL      -0.078400
     38 C34         24.1790     4.4370   -17.4470 c3        18 MOL      -0.079400
     39 C35         24.9640     4.4440   -16.1360 c3        18 MOL      -0.078733
     40 C36         26.3570     3.8830   -16.4300 c3        18 MOL      -0.079400
     41 C37         27.2010     3.8570   -15.1560 c3        18 MOL      -0.079400
     42 C38         28.5750     3.2760   -15.5160 c3        18 MOL      -0.078400
     43 C39         29.4730     3.2180   -14.2770 c3        18 MOL      -0.078400
     44 C40         30.8230     2.6200   -14.6950 c3        18 MOL      -0.084400
     45 C41         31.7600     2.5350   -13.4830 c3        18 MOL       0.133400
     46 C42         33.8670     1.8700   -12.8330 c3        18 MOL       0.128400
     47 C43         35.1200     1.2650   -13.3160 c3        18 MOL       0.130400
     48 C44         37.0660     0.6750   -12.4290 c3        18 MOL       0.130400
     49 C45         37.6750     0.7160   -11.1490 c3        18 MOL       0.129400
     50 C46         39.6050     0.1100   -10.2910 c3        18 MOL       0.130400
     51 C47         40.7960    -0.5060   -10.7820 c3        18 MOL       0.128400
     52 C48         42.7780    -1.1400   -10.0100 c3        18 MOL       0.094400
     53 C49         43.4970    -1.1100    -8.7220 c3        18 MOL       0.125400
     54 C50         13.5500    10.7380   -16.2990 c3        18 MOL      -0.104400
     55 C51         12.5380    11.3140   -15.3060 c3        18 MOL      -0.077400
     56 C52         13.1780    12.0870   -14.1610 c3        18 MOL      -0.078400
     57 C53         11.9970    12.5990   -13.3210 c3        18 MOL      -0.079400
     58 C54         12.4390    13.4210   -12.1100 c3        18 MOL      -0.078733
     59 C55         11.1480    13.8730   -11.4100 c3        18 MOL      -0.079400
     60 C56         11.4450    14.7230   -10.1740 c3        18 MOL      -0.079400
     61 C57         10.0920    15.1400    -9.5700 c3        18 MOL      -0.078400
     62 C58         10.2920    16.0090    -8.3230 c3        18 MOL      -0.078400
     63 C59          8.9060    16.4040    -7.7860 c3        18 MOL      -0.084400
     64 C60          9.0570    17.2840    -6.5360 c3        18 MOL       0.133400
     65 C61          7.8760    18.4450    -4.9380 c3        18 MOL       0.128400
     66 C62          6.5240    18.8250    -4.4860 c3        18 MOL       0.130400
     67 C63          5.7020    20.0630    -2.8210 c3        18 MOL       0.130400
     68 C64          6.2520    20.7980    -1.7400 c3        18 MOL       0.129400
     69 C65          5.5080    22.0190    -0.0800 c3        18 MOL       0.130400
     70 C66          4.2380    22.4520     0.4030 c3        18 MOL       0.128400
     71 C67          3.4380    23.6670     2.0850 c3        18 MOL       0.094400
     72 C68          3.9890    24.3990     3.2430 c3        18 MOL       0.125400
     73 O           18.7030     6.3710   -22.0310 o         18 MOL      -0.595767
     74 O1          14.9400     8.3310   -17.2430 o         18 MOL      -0.595767
     75 O2          13.6580     5.6870   -23.6930 o         18 MOL      -0.595767
     76 O3          -2.0380    11.7190   -28.2690 os        18 MOL      -0.427600
     77 O4          -5.1040    13.2850   -28.5080 os        18 MOL      -0.430600
     78 O5          -7.9900    14.1570   -29.7120 os        18 MOL      -0.430600
     79 O6         -10.9160    15.4510   -30.3560 os        18 MOL      -0.425600
     80 O7         -13.9160    16.0490   -32.0160 oh        18 MOL      -0.592800
     81 O8          33.0060     1.9660   -13.9040 os        18 MOL      -0.427600
     82 O9          35.8900     1.2130   -12.1850 os        18 MOL      -0.430600
     83 O10         38.8590     0.1690   -11.3900 os        18 MOL      -0.430600
     84 O11         41.5600    -0.5750    -9.7110 os        18 MOL      -0.425600
     85 O12         44.7590    -1.6530    -8.9100 oh        18 MOL      -0.592800
     86 O13          7.7530    17.6530    -6.0590 os        18 MOL      -0.427600
     87 O14          6.7940    19.5950    -3.3880 os        18 MOL      -0.430600
     88 O15          5.1750    21.2910    -1.1430 os        18 MOL      -0.430600
     89 O16          4.5580    23.1690     1.4620 os        18 MOL      -0.425600
     90 O17          2.9370    24.9420     3.9620 oh        18 MOL      -0.592800
     91 H253        12.9510     7.8740   -20.5590 ha        18 MOL       0.160667
     92 H254        16.8860     7.6520   -18.8800 ha        18 MOL       0.160667
     93 H255        16.1290     6.0570   -22.7940 ha        18 MOL       0.160667
     94 H250        18.0020     5.6600   -19.0700 hn        18 MOL       0.307833
     95 H251        13.0040     9.5570   -19.3810 hn        18 MOL       0.307833
     96 H252        12.4980     8.3570   -22.5610 hn        18 MOL       0.307833
     97 H6          11.2390     6.2250   -24.1680 h1        18 MOL       0.064700
     98 H7          11.9480     7.5710   -25.1000 h1        18 MOL       0.064700
     99 H8          10.5570     9.2100   -23.8540 hc        18 MOL       0.044700
    100 H9           9.8330     7.8700   -22.9010 hc        18 MOL       0.044700
    101 H10          8.9620     6.8550   -24.9960 hc        18 MOL       0.043700
    102 H11          9.6850     8.1970   -25.9460 hc        18 MOL       0.043700
    103 H12          8.3320     9.8350   -24.6510 hc        18 MOL       0.040700
    104 H13          7.6130     8.4910   -23.7050 hc        18 MOL       0.040700
    105 H14          6.6670     7.5250   -25.7940 hc        18 MOL       0.040867
    106 H15          7.3870     8.8740   -26.7400 hc        18 MOL       0.040867
    107 H16          6.1060    10.5090   -25.3760 hc        18 MOL       0.039867
    108 H17          5.3870     9.1610   -24.4340 hc        18 MOL       0.039867
    109 H18          4.3710     8.2510   -26.5130 hc        18 MOL       0.040533
    110 H19          5.0930     9.6030   -27.4530 hc        18 MOL       0.040533
    111 H20          3.8780    11.2390   -26.0320 hc        18 MOL       0.039700
    112 H21          3.1540     9.8890   -25.0950 hc        18 MOL       0.039700
    113 H22          2.0720     9.0340   -27.1680 hc        18 MOL       0.041867
    114 H23          2.8010    10.3860   -28.1010 hc        18 MOL       0.041867
    115 H24          1.6290    12.0240   -26.6440 hc        18 MOL       0.040033
    116 H25          0.8980    10.6740   -25.7130 hc        18 MOL       0.040033
    117 H26         -0.2040     9.8470   -27.7850 hc        18 MOL       0.055200
    118 H27          0.5330    11.1980   -28.7120 hc        18 MOL       0.055200
    119 H28         -0.6270    12.8410   -27.2440 h1        18 MOL       0.027533
    120 H29         -1.3690    11.4910   -26.3170 h1        18 MOL       0.027533
    121 H30         -2.7330    13.5910   -27.8490 h1        18 MOL       0.039700
    122 H31         -3.4900    12.2420   -26.9320 h1        18 MOL       0.039700
    123 H32         -4.4890    11.4000   -28.9980 h1        18 MOL       0.042367
    124 H33         -3.7220    12.7550   -29.9130 h1        18 MOL       0.042367
    125 H34         -6.5570    12.2900   -29.4520 h1        18 MOL       0.042367
    126 H35         -5.7750    13.6410   -30.3540 h1        18 MOL       0.042367
    127 H36         -6.5860    15.2070   -28.7230 h1        18 MOL       0.042700
    128 H37         -7.3760    13.8530   -27.8180 h1        18 MOL       0.042700
    129 H38         -8.7170    16.0090   -29.3870 h1        18 MOL       0.042700
    130 H39         -9.5150    14.6530   -28.4900 h1        18 MOL       0.042700
    131 H40        -10.1280    13.6320   -30.5880 h1        18 MOL       0.042200
    132 H41         -9.3360    14.9810   -31.4820 h1        18 MOL       0.042200
    133 H42        -12.1470    14.2350   -31.4470 h1        18 MOL       0.033700
    134 H43        -11.3710    15.5960   -32.3460 h1        18 MOL       0.033700
    135 H44        -12.5970    17.1980   -30.9530 h1        18 MOL       0.059200
    136 H45        -13.3580    15.8370   -30.0610 h1        18 MOL       0.059200
    137 H46         20.5680     6.0030   -20.5560 h1        18 MOL       0.064700
    138 H47         19.9980     4.3540   -20.1820 h1        18 MOL       0.064700
    139 H48         20.0550     4.8390   -17.7480 hc        18 MOL       0.044700
    140 H49         20.6330     6.5070   -18.0950 hc        18 MOL       0.044700
    141 H50         22.5990     5.5680   -19.3000 hc        18 MOL       0.043700
    142 H51         22.0200     3.9080   -18.9510 hc        18 MOL       0.043700
    143 H52         22.2280     4.3510   -16.5090 hc        18 MOL       0.040700
    144 H53         22.8110     6.0140   -16.8640 hc        18 MOL       0.040700
    145 H54         24.7010     5.0650   -18.1840 hc        18 MOL       0.040867
    146 H55         24.1170     3.4070   -17.8260 hc        18 MOL       0.040867
    147 H56         24.4570     3.8120   -15.3930 hc        18 MOL       0.039867
    148 H57         25.0470     5.4710   -15.7530 hc        18 MOL       0.039867
    149 H58         26.8520     4.5130   -17.1810 hc        18 MOL       0.040533
    150 H59         26.2580     2.8590   -16.8190 hc        18 MOL       0.040533
    151 H60         26.7140     3.2230   -14.4010 hc        18 MOL       0.039700
    152 H61         27.3140     4.8780   -14.7640 hc        18 MOL       0.039700
    153 H62         29.0500     3.9090   -16.2790 hc        18 MOL       0.041867
    154 H63         28.4430     2.2600   -15.9140 hc        18 MOL       0.041867
    155 H64         29.0080     2.5810   -13.5120 hc        18 MOL       0.040033
    156 H65         29.6210     4.2300   -13.8750 hc        18 MOL       0.040033
    157 H66         31.2790     3.2570   -15.4680 hc        18 MOL       0.055200
    158 H67         30.6610     1.6120   -15.1020 hc        18 MOL       0.055200
    159 H68         31.3050     1.8970   -12.7110 h1        18 MOL       0.027533
    160 H69         31.9300     3.5430   -13.0750 h1        18 MOL       0.027533
    161 H70         33.4330     1.2290   -12.0530 h1        18 MOL       0.039700
    162 H71         34.0770     2.8660   -12.4210 h1        18 MOL       0.039700
    163 H72         35.5890     1.8980   -14.0860 h1        18 MOL       0.042367
    164 H73         34.9340     0.2550   -13.7140 h1        18 MOL       0.042367
    165 H74         37.6430     1.2700   -13.1500 h1        18 MOL       0.042367
    166 H75         36.9700    -0.3630   -12.7750 h1        18 MOL       0.042367
    167 H76         37.0940     0.1220   -10.4280 h1        18 MOL       0.042700
    168 H77         37.7710     1.7550   -10.8020 h1        18 MOL       0.042700
    169 H78         39.1360    -0.5150    -9.5170 h1        18 MOL       0.042700
    170 H79         39.8230     1.1130    -9.8960 h1        18 MOL       0.042700
    171 H80         40.5720    -1.5050   -11.1800 h1        18 MOL       0.042200
    172 H81         41.2530     0.1220   -11.5590 h1        18 MOL       0.042200
    173 H82         43.3130    -0.5380   -10.7630 h1        18 MOL       0.033700
    174 H83         42.6550    -2.1740   -10.3680 h1        18 MOL       0.033700
    175 H84         42.9390    -1.6950    -7.9780 h1        18 MOL       0.059200
    176 H85         43.5840    -0.0680    -8.3840 h1        18 MOL       0.059200
    177 H86         12.0960     9.2610   -16.7920 h1        18 MOL       0.064700
    178 H87         11.9620    10.7640   -17.7490 h1        18 MOL       0.064700
    179 H88         14.1310    11.5460   -16.7670 hc        18 MOL       0.044700
    180 H89         14.2250    10.0250   -15.8010 hc        18 MOL       0.044700
    181 H90         11.9450    10.4900   -14.8850 hc        18 MOL       0.043700
    182 H91         11.8710    11.9950   -15.8530 hc        18 MOL       0.043700
    183 H92         13.7620    12.9290   -14.5540 hc        18 MOL       0.040700
    184 H93         13.8250    11.4270   -13.5660 hc        18 MOL       0.040700
    185 H94         11.4090    11.7390   -12.9700 hc        18 MOL       0.040867
    186 H95         11.3650    13.2310   -13.9610 hc        18 MOL       0.040867
    187 H96         13.0140    14.2980   -12.4380 hc        18 MOL       0.039867
    188 H97         13.0490    12.8070   -11.4330 hc        18 MOL       0.039867
    189 H98         10.5720    12.9870   -11.1080 hc        18 MOL       0.040533
    190 H99         10.5540    14.4690   -12.1170 hc        18 MOL       0.040533
    191 H100        12.0150    15.6170   -10.4660 hc        18 MOL       0.039700
    192 H101        12.0240    14.1360    -9.4450 hc        18 MOL       0.039700
    193 H102         9.5220    14.2400    -9.2960 hc        18 MOL       0.041867
    194 H103         9.5280    15.7140   -10.3190 hc        18 MOL       0.041867
    195 H104        10.8550    16.9140    -8.5900 hc        18 MOL       0.040033
    196 H105        10.8420    15.4420    -7.5580 hc        18 MOL       0.040033
    197 H106         8.3400    15.4960    -7.5300 hc        18 MOL       0.055200
    198 H107         8.3650    16.9640    -8.5630 hc        18 MOL       0.055200
    199 H108         9.6240    18.1910    -6.7930 h1        18 MOL       0.027533
    200 H109         9.5930    16.7240    -5.7540 h1        18 MOL       0.027533
    201 H110         8.4430    19.3540    -5.1780 h1        18 MOL       0.039700
    202 H111         8.3840    17.8910    -4.1370 h1        18 MOL       0.039700
    203 H112         5.9340    17.9350    -4.2140 h1        18 MOL       0.042367
    204 H113         6.0020    19.4080    -5.2620 h1        18 MOL       0.042367
    205 H114         5.0560    19.2550    -2.4520 h1        18 MOL       0.042367
    206 H115         5.1450    20.7250    -3.4980 h1        18 MOL       0.042367
    207 H116         6.9050    21.5980    -2.1170 h1        18 MOL       0.042700
    208 H117         6.8130    20.1280    -1.0720 h1        18 MOL       0.042700
    209 H118         6.1290    22.8830    -0.3620 h1        18 MOL       0.042700
    210 H119         6.0210    21.4100     0.6800 h1        18 MOL       0.042700
    211 H120         3.6220    21.5840     0.6790 h1        18 MOL       0.042200
    212 H121         3.7260    23.0590    -0.3560 h1        18 MOL       0.042200
    213 H122         2.7820    22.8490     2.4250 h1        18 MOL       0.033700
    214 H123         2.8840    24.3470     1.4180 h1        18 MOL       0.033700
    215 H124         4.5530    23.6970     3.8750 h1        18 MOL       0.059200
    216 H125         4.6580    25.1950     2.8880 h1        18 MOL       0.059200
    217 H126         2.4360    25.5870     3.4020 ho        18 MOL       0.398000
    218 H127       -13.5510    16.3510   -32.8860 ho        18 MOL       0.398000
    219 H128        44.6850    -2.5980    -9.2010 ho        18 MOL       0.398000
@<TRIPOS>BOND
     1     1    10 1   
     2     1    13 1   
     3     1    94 1   
     4     2    11 1   
     5     2    12 1   
     6     2    95 1   
     7     3    14 1   
     8     3    15 1   
     9     3    96 1   
    10     4     5 ar  
    11     4     9 ar  
    12     4    15 1   
    13     5     6 ar  
    14     5    91 1   
    15     6     7 ar  
    16     6    11 1   
    17     7     8 ar  
    18     7    92 1   
    19     8     9 ar  
    20     8    10 1   
    21     9    93 1   
    22    10    73 2   
    23    11    74 2   
    24    12    54 1   
    25    12   177 1   
    26    12   178 1   
    27    13    35 1   
    28    13   137 1   
    29    13   138 1   
    30    14    16 1   
    31    14    97 1   
    32    14    98 1   
    33    15    75 2   
    34    16    17 1   
    35    16    99 1   
    36    16   100 1   
    37    17    18 1   
    38    17   101 1   
    39    17   102 1   
    40    18    19 1   
    41    18   103 1   
    42    18   104 1   
    43    19    20 1   
    44    19   105 1   
    45    19   106 1   
    46    20    21 1   
    47    20   107 1   
    48    20   108 1   
    49    21    22 1   
    50    21   109 1   
    51    21   110 1   
    52    22    23 1   
    53    22   111 1   
    54    22   112 1   
    55    23    24 1   
    56    23   113 1   
    57    23   114 1   
    58    24    25 1   
    59    24   115 1   
    60    24   116 1   
    61    25    26 1   
    62    25   117 1   
    63    25   118 1   
    64    26    76 1   
    65    26   119 1   
    66    26   120 1   
    67    27    28 1   
    68    27    76 1   
    69    27   121 1   
    70    27   122 1   
    71    28    77 1   
    72    28   123 1   
    73    28   124 1   
    74    29    30 1   
    75    29    77 1   
    76    29   125 1   
    77    29   126 1   
    78    30    78 1   
    79    30   127 1   
    80    30   128 1   
    81    31    32 1   
    82    31    78 1   
    83    31   129 1   
    84    31   130 1   
    85    32    79 1   
    86    32   131 1   
    87    32   132 1   
    88    33    34 1   
    89    33    79 1   
    90    33   133 1   
    91    33   134 1   
    92    34    80 1   
    93    34   135 1   
    94    34   136 1   
    95    35    36 1   
    96    35   139 1   
    97    35   140 1   
    98    36    37 1   
    99    36   141 1   
   100    36   142 1   
   101    37    38 1   
   102    37   143 1   
   103    37   144 1   
   104    38    39 1   
   105    38   145 1   
   106    38   146 1   
   107    39    40 1   
   108    39   147 1   
   109    39   148 1   
   110    40    41 1   
   111    40   149 1   
   112    40   150 1   
   113    41    42 1   
   114    41   151 1   
   115    41   152 1   
   116    42    43 1   
   117    42   153 1   
   118    42   154 1   
   119    43    44 1   
   120    43   155 1   
   121    43   156 1   
   122    44    45 1   
   123    44   157 1   
   124    44   158 1   
   125    45    81 1   
   126    45   159 1   
   127    45   160 1   
   128    46    47 1   
   129    46    81 1   
   130    46   161 1   
   131    46   162 1   
   132    47    82 1   
   133    47   163 1   
   134    47   164 1   
   135    48    49 1   
   136    48    82 1   
   137    48   165 1   
   138    48   166 1   
   139    49    83 1   
   140    49   167 1   
   141    49   168 1   
   142    50    51 1   
   143    50    83 1   
   144    50   169 1   
   145    50   170 1   
   146    51    84 1   
   147    51   171 1   
   148    51   172 1   
   149    52    53 1   
   150    52    84 1   
   151    52   173 1   
   152    52   174 1   
   153    53    85 1   
   154    53   175 1   
   155    53   176 1   
   156    54    55 1   
   157    54   179 1   
   158    54   180 1   
   159    55    56 1   
   160    55   181 1   
   161    55   182 1   
   162    56    57 1   
   163    56   183 1   
   164    56   184 1   
   165    57    58 1   
   166    57   185 1   
   167    57   186 1   
   168    58    59 1   
   169    58   187 1   
   170    58   188 1   
   171    59    60 1   
   172    59   189 1   
   173    59   190 1   
   174    60    61 1   
   175    60   191 1   
   176    60   192 1   
   177    61    62 1   
   178    61   193 1   
   179    61   194 1   
   180    62    63 1   
   181    62   195 1   
   182    62   196 1   
   183    63    64 1   
   184    63   197 1   
   185    63   198 1   
   186    64    86 1   
   187    64   199 1   
   188    64   200 1   
   189    65    66 1   
   190    65    86 1   
   191    65   201 1   
   192    65   202 1   
   193    66    87 1   
   194    66   203 1   
   195    66   204 1   
   196    67    68 1   
   197    67    87 1   
   198    67   205 1   
   199    67   206 1   
   200    68    88 1   
   201    68   207 1   
   202    68   208 1   
   203    69    70 1   
   204    69    88 1   
   205    69   209 1   
   206    69   210 1   
   207    70    89 1   
   208    70   211 1   
   209    70   212 1   
   210    71    72 1   
   211    71    89 1   
   212    71   213 1   
   213    71   214 1   
   214    72    90 1   
   215    72   215 1   
   216    72   216 1   
   217    80   218 1   
   218    85   219 1   
   219    90   217 1   
@<TRIPOS>SUBSTRUCTURE
     1 MOL         1 TEMP              0 ****  ****    0 ROOT
