@<TRIPOS>MOLECULE
MOL
  219   219     1     0     0
SMALL
bcc


@<TRIPOS>ATOM
      1 N           13.2960    -2.6960   -14.7910 n         15 MOL      -0.558567
      2 N1          11.1920     1.4750   -10.3490 n         15 MOL      -0.558567
      3 N2           7.5680     0.3760   -15.2600 n         15 MOL      -0.558567
      4 C            9.5660    -0.5920   -14.3540 ca        15 MOL      -0.157933
      5 C1           9.3780    -0.0270   -13.0840 ca        15 MOL      -0.037333
      6 C2          10.4320     0.0950   -12.1750 ca        15 MOL      -0.157933
      7 C3          11.6940    -0.3980   -12.5370 ca        15 MOL      -0.037333
      8 C4          11.8980    -1.0160   -13.7770 ca        15 MOL      -0.157933
      9 C5          10.8270    -1.1080   -14.6790 ca        15 MOL      -0.037333
     10 C6          13.2650    -1.5290   -14.1400 c         15 MOL       0.669033
     11 C7          10.1860     0.7420   -10.8370 c         15 MOL       0.669033
     12 C8          11.1740     2.0600    -9.0420 c3        15 MOL       0.084000
     13 C9          14.5250    -3.2720   -15.2710 c3        15 MOL       0.084000
     14 C10          6.4500     0.4680   -16.1400 c3        15 MOL       0.084000
     15 C11          8.4380    -0.6350   -15.3550 c         15 MOL       0.669033
     16 C12          5.4520     1.5100   -15.6240 c3        15 MOL      -0.105067
     17 C13          4.2690     1.5780   -16.5920 c3        15 MOL      -0.077400
     18 C14          3.2580     2.6130   -16.0880 c3        15 MOL      -0.078733
     19 C15          2.0770     2.6700   -17.0640 c3        15 MOL      -0.079400
     20 C16          1.0500     3.6980   -16.5780 c3        15 MOL      -0.079067
     21 C17         -0.1120     3.7280   -17.5740 c3        15 MOL      -0.079400
     22 C18         -1.1650     4.7460   -17.1240 c3        15 MOL      -0.079400
     23 C19         -2.3050     4.7410   -18.1520 c3        15 MOL      -0.078400
     24 C20         -3.3960     5.7460   -17.7570 c3        15 MOL      -0.078400
     25 C21         -4.4990     5.6940   -18.8250 c3        15 MOL      -0.084400
     26 C22         -5.6280     6.6840   -18.4900 c3        15 MOL       0.133400
     27 C23         -7.6690     7.4760   -19.2730 c3        15 MOL       0.128400
     28 C24         -8.6330     7.3200   -20.3830 c3        15 MOL       0.130400
     29 C25        -10.5610     8.1320   -21.0810 c3        15 MOL       0.130400
     30 C26        -11.5660     9.0820   -20.7250 c3        15 MOL       0.129400
     31 C27        -13.4690     9.7260   -21.6660 c3        15 MOL       0.130400
     32 C28        -14.1640     9.3540   -22.8620 c3        15 MOL       0.128400
     33 C29        -16.0180     9.8370   -23.9690 c3        15 MOL       0.094400
     34 C30        -17.1880    10.7280   -23.8250 c3        15 MOL       0.125400
     35 C31         10.2130     3.2350    -8.8550 c3        15 MOL      -0.105067
     36 C32         10.4560     3.6420    -7.4020 c3        15 MOL      -0.077400
     37 C33          9.6280     4.8330    -6.9410 c3        15 MOL      -0.078733
     38 C34         10.0860     5.0690    -5.4940 c3        15 MOL      -0.079400
     39 C35          9.4030     6.2560    -4.8160 c3        15 MOL      -0.079067
     40 C36         10.0320     6.3320    -3.4180 c3        15 MOL      -0.079400
     41 C37          9.4850     7.4950    -2.5880 c3        15 MOL      -0.079400
     42 C38         10.2360     7.4520    -1.2430 c3        15 MOL      -0.078400
     43 C39          9.8030     8.5860    -0.3060 c3        15 MOL      -0.078400
     44 C40         10.6360     8.4530     0.9830 c3        15 MOL      -0.084400
     45 C41         10.2860     9.5640     1.9870 c3        15 MOL       0.133400
     46 C42         10.8500    10.3820     4.0800 c3        15 MOL       0.128400
     47 C43         11.7430    10.1540     5.2320 c3        15 MOL       0.130400
     48 C44         12.1720    11.1220     7.1800 c3        15 MOL       0.130400
     49 C45         11.7170    12.2470     7.9190 c3        15 MOL       0.129400
     50 C46         12.2080    13.1750     9.8520 c3        15 MOL       0.130400
     51 C47         13.1270    12.9110    10.9130 c3        15 MOL       0.128400
     52 C48         13.7150    13.7940    12.8640 c3        15 MOL       0.094400
     53 C49         13.3310    14.9590    13.6860 c3        15 MOL       0.125400
     54 C50         15.4020    -3.8220   -14.1360 c3        15 MOL      -0.105067
     55 C51         16.6590    -4.3940   -14.7990 c3        15 MOL      -0.077400
     56 C52         17.6130    -4.9820   -13.7590 c3        15 MOL      -0.078733
     57 C53         18.8290    -5.5410   -14.5090 c3        15 MOL      -0.079400
     58 C54         19.8270    -6.1550   -13.5270 c3        15 MOL      -0.079067
     59 C55         21.0140    -6.7050   -14.3260 c3        15 MOL      -0.079400
     60 C56         22.0310    -7.3310   -13.3690 c3        15 MOL      -0.079400
     61 C57         23.2100    -7.8840   -14.1840 c3        15 MOL      -0.078400
     62 C58         24.2320    -8.5130   -13.2340 c3        15 MOL      -0.078400
     63 C59         25.4060    -9.0670   -14.0510 c3        15 MOL      -0.084400
     64 C60         26.4270    -9.6950   -13.0930 c3        15 MOL       0.133400
     65 C61         28.4440   -10.7760   -12.9710 c3        15 MOL       0.128400
     66 C62         29.5740   -11.3140   -13.7490 c3        15 MOL       0.130400
     67 C63         31.4800   -12.3610   -13.2490 c3        15 MOL       0.130400
     68 C64         32.1230   -12.7860   -12.0580 c3        15 MOL       0.129400
     69 C65         33.9940   -13.7990   -11.5240 c3        15 MOL       0.130400
     70 C66         35.1150   -14.3310   -12.2310 c3        15 MOL       0.128400
     71 C67         37.0430   -15.3360   -11.7760 c3        15 MOL       0.094400
     72 C68         37.7820   -15.7670   -10.5730 c3        15 MOL       0.125400
     73 O           14.2800    -0.8970   -13.8420 o         15 MOL      -0.606767
     74 O1           9.1070     0.6120   -10.2570 o         15 MOL      -0.606767
     75 O2           8.3490    -1.5220   -16.2040 o         15 MOL      -0.606767
     76 O3          -6.6210     6.5950   -19.5190 os        15 MOL      -0.427600
     77 O4          -9.6570     8.2090   -20.1140 os        15 MOL      -0.430600
     78 O5         -12.4080     8.9290   -21.7460 os        15 MOL      -0.430600
     79 O6         -15.2450    10.1090   -22.8590 os        15 MOL      -0.425600
     80 O7         -18.0360    10.5170   -24.9050 oh        15 MOL      -0.592800
     81 O8          11.1080     9.3920     3.1520 os        15 MOL      -0.427600
     82 O9          11.4300    11.1770     6.0900 os        15 MOL      -0.430600
     83 O10         12.4770    12.1840     9.0070 os        15 MOL      -0.430600
     84 O11         12.8870    13.8850    11.7680 os        15 MOL      -0.425600
     85 O12         14.1200    14.9730    14.8260 oh        15 MOL      -0.592800
     86 O13         27.5310   -10.2200   -13.8420 os        15 MOL      -0.427600
     87 O14         30.3820   -11.8200   -12.7670 os        15 MOL      -0.430600
     88 O15         33.2380   -13.3360   -12.5160 os        15 MOL      -0.430600
     89 O16         35.8850   -14.7930   -11.2660 os        15 MOL      -0.425600
     90 O17         38.9860   -16.3260   -10.9740 oh        15 MOL      -0.592800
     91 H253         8.4390     0.3060   -12.8150 ha        15 MOL       0.163333
     92 H254        12.4840    -0.3040   -11.8800 ha        15 MOL       0.163333
     93 H255        10.9700    -1.5620   -15.5950 ha        15 MOL       0.163333
     94 H250        12.4340    -3.1430   -14.9540 hn        15 MOL       0.311500
     95 H251        12.0010     1.5600   -10.9040 hn        15 MOL       0.311500
     96 H5          12.1900     2.4110    -8.8110 h1        15 MOL       0.064700
     97 H6          10.8790     1.2830    -8.3210 h1        15 MOL       0.064700
     98 H7          15.1020    -2.4900   -15.7860 h1        15 MOL       0.064700
     99 H8          14.2920    -4.0900   -15.9670 h1        15 MOL       0.064700
    100 H252         7.7710     1.0660   -14.5870 hn        15 MOL       0.311500
    101 H10          5.9730    -0.5200   -16.2170 h1        15 MOL       0.064700
    102 H11          6.8050     0.7570   -17.1380 h1        15 MOL       0.064700
    103 H12          5.9390     2.4940   -15.5670 hc        15 MOL       0.046033
    104 H13          5.0940     1.2170   -14.6260 hc        15 MOL       0.046033
    105 H14          3.7870     0.5920   -16.6490 hc        15 MOL       0.043367
    106 H15          4.6290     1.8680   -17.5890 hc        15 MOL       0.043367
    107 H16          3.7390     3.6000   -16.0300 hc        15 MOL       0.040867
    108 H17          2.8990     2.3200   -15.0910 hc        15 MOL       0.040867
    109 H18          1.6020     1.6800   -17.1210 hc        15 MOL       0.040867
    110 H19          2.4400     2.9600   -18.0600 hc        15 MOL       0.040867
    111 H20          1.5170     4.6920   -16.5230 hc        15 MOL       0.040033
    112 H21          0.6790     3.4100   -15.5840 hc        15 MOL       0.040033
    113 H22         -0.5700     2.7300   -17.6290 hc        15 MOL       0.040367
    114 H23          0.2670     4.0110   -18.5660 hc        15 MOL       0.040367
    115 H24         -0.7130     5.7470   -17.0720 hc        15 MOL       0.039700
    116 H25         -1.5530     4.4640   -16.1340 hc        15 MOL       0.039700
    117 H26         -2.7430     3.7340   -18.2030 hc        15 MOL       0.041700
    118 H27         -1.9040     5.0140   -19.1380 hc        15 MOL       0.041700
    119 H28         -2.9700     6.7590   -17.7120 hc        15 MOL       0.040200
    120 H29         -3.8130     5.4770   -16.7760 hc        15 MOL       0.040200
    121 H30         -4.9100     4.6750   -18.8680 hc        15 MOL       0.055033
    122 H31         -4.0660     5.9550   -19.8010 hc        15 MOL       0.055033
    123 H32         -5.2240     7.7070   -18.4520 h1        15 MOL       0.027700
    124 H33         -6.0730     6.4270   -17.5180 h1        15 MOL       0.027700
    125 H34         -7.3000     8.5110   -19.2500 h1        15 MOL       0.039700
    126 H35         -8.1590     7.2330   -18.3200 h1        15 MOL       0.039700
    127 H36         -9.0160     6.2880   -20.4120 h1        15 MOL       0.042200
    128 H37         -8.1500     7.5690   -21.3410 h1        15 MOL       0.042200
    129 H38        -10.9980     7.1250   -21.1310 h1        15 MOL       0.042200
    130 H39        -10.1210     8.4010   -22.0510 h1        15 MOL       0.042200
    131 H40        -11.1500    10.1000   -20.6890 h1        15 MOL       0.042700
    132 H41        -12.0360     8.8190   -19.7650 h1        15 MOL       0.042700
    133 H42        -13.1840    10.7890   -21.6920 h1        15 MOL       0.042700
    134 H43        -14.0760     9.5090   -20.7750 h1        15 MOL       0.042700
    135 H44        -14.4270     8.2880   -22.8270 h1        15 MOL       0.042200
    136 H45        -13.5380     9.5610   -23.7420 h1        15 MOL       0.042200
    137 H46        -16.3390     8.7830   -23.9700 h1        15 MOL       0.033700
    138 H47        -15.4670    10.0660   -24.8950 h1        15 MOL       0.033700
    139 H48        -16.8510    11.7740   -23.8060 h1        15 MOL       0.059200
    140 H49        -17.7080    10.4900   -22.8870 h1        15 MOL       0.059200
    141 H50        -17.5720    10.7440   -25.7500 ho        15 MOL       0.398000
    142 H51          9.1690     2.9240    -9.0130 hc        15 MOL       0.046033
    143 H52         10.4710     4.0620    -9.5330 hc        15 MOL       0.046033
    144 H53         11.5180     3.9040    -7.2980 hc        15 MOL       0.043367
    145 H54         10.2320     2.7850    -6.7520 hc        15 MOL       0.043367
    146 H55          8.5550     4.6020    -6.9880 hc        15 MOL       0.040867
    147 H56          9.8520     5.7110    -7.5610 hc        15 MOL       0.040867
    148 H57         11.1690     5.2580    -5.5060 hc        15 MOL       0.040867
    149 H58          9.8860     4.1620    -4.9060 hc        15 MOL       0.040867
    150 H59          8.3170     6.0940    -4.7480 hc        15 MOL       0.040033
    151 H60          9.6100     7.1810    -5.3730 hc        15 MOL       0.040033
    152 H61         11.1170     6.4670    -3.5330 hc        15 MOL       0.040367
    153 H62          9.8400     5.3900    -2.8850 hc        15 MOL       0.040367
    154 H63          8.4030     7.3770    -2.4320 hc        15 MOL       0.039700
    155 H64          9.6870     8.4460    -3.1000 hc        15 MOL       0.039700
    156 H65         11.3130     7.5500    -1.4390 hc        15 MOL       0.041700
    157 H66         10.0430     6.4870    -0.7530 hc        15 MOL       0.041700
    158 H67          8.7310     8.5010    -0.0770 hc        15 MOL       0.040200
    159 H68         10.0060     9.5570    -0.7790 hc        15 MOL       0.040200
    160 H69         11.7020     8.5260     0.7260 hc        15 MOL       0.055033
    161 H70         10.4380     7.4720     1.4410 hc        15 MOL       0.055033
    162 H71          9.2230     9.4990     2.2630 h1        15 MOL       0.027700
    163 H72         10.4900    10.5460     1.5330 h1        15 MOL       0.027700
    164 H73          9.8030    10.3350     4.4100 h1        15 MOL       0.039700
    165 H74         11.0600    11.3700     3.6490 h1        15 MOL       0.039700
    166 H75         12.7970    10.2150     4.9180 h1        15 MOL       0.042200
    167 H76         11.5400     9.1750     5.6940 h1        15 MOL       0.042200
    168 H77         13.2400    11.2290     6.9430 h1        15 MOL       0.042200
    169 H78         11.9950    10.1950     7.7420 h1        15 MOL       0.042200
    170 H79         10.6500    12.1430     8.1620 h1        15 MOL       0.042700
    171 H80         11.8960    13.1740     7.3550 h1        15 MOL       0.042700
    172 H81         11.1700    13.1270    10.2160 h1        15 MOL       0.042700
    173 H82         12.4130    14.1580     9.4020 h1        15 MOL       0.042700
    174 H83         14.1590    12.9550    10.5380 h1        15 MOL       0.042200
    175 H84         12.9250    11.9270    11.3580 h1        15 MOL       0.042200
    176 H85         14.7720    13.8700    12.5620 h1        15 MOL       0.033700
    177 H86         13.5430    12.8540    13.4110 h1        15 MOL       0.033700
    178 H87         12.2700    14.8790    13.9610 h1        15 MOL       0.059200
    179 H88         13.4940    15.8780    13.1060 h1        15 MOL       0.059200
    180 H89         13.9640    14.1530    15.3600 ho        15 MOL       0.398000
    181 H90         14.8680    -4.6170   -13.5950 hc        15 MOL       0.046033
    182 H91         15.6760    -3.0150   -13.4390 hc        15 MOL       0.046033
    183 H92         17.1740    -3.5940   -15.3490 hc        15 MOL       0.043367
    184 H93         16.3630    -5.1860   -15.5010 hc        15 MOL       0.043367
    185 H94         17.1100    -5.7880   -13.2090 hc        15 MOL       0.040867
    186 H95         17.9320    -4.1980   -13.0570 hc        15 MOL       0.040867
    187 H96         19.3190    -4.7300   -15.0660 hc        15 MOL       0.040867
    188 H97         18.4930    -6.3160   -15.2130 hc        15 MOL       0.040867
    189 H98         19.3460    -6.9710   -12.9710 hc        15 MOL       0.040033
    190 H99         20.1770    -5.3860   -12.8230 hc        15 MOL       0.040033
    191 H100        21.4910    -5.8880   -14.8850 hc        15 MOL       0.040367
    192 H101        20.6560    -7.4710   -15.0290 hc        15 MOL       0.040367
    193 H102        21.5530    -8.1480   -12.8100 hc        15 MOL       0.039700
    194 H103        22.3920    -6.5660   -12.6670 hc        15 MOL       0.039700
    195 H104        23.6860    -7.0670   -14.7450 hc        15 MOL       0.041700
    196 H105        22.8450    -8.6470   -14.8860 hc        15 MOL       0.041700
    197 H106        23.7580    -9.3300   -12.6720 hc        15 MOL       0.040200
    198 H107        24.6000    -7.7500   -12.5330 hc        15 MOL       0.040200
    199 H108        25.8800    -8.2500   -14.6140 hc        15 MOL       0.055033
    200 H109        25.0370    -9.8310   -14.7510 hc        15 MOL       0.055033
    201 H110        25.9460   -10.5080   -12.5290 h1        15 MOL       0.027700
    202 H111        26.7890    -8.9270   -12.3930 h1        15 MOL       0.027700
    203 H112        27.9760   -11.5920   -12.4030 h1        15 MOL       0.039700
    204 H113        28.8170   -10.0110   -12.2760 h1        15 MOL       0.039700
    205 H114        30.0820   -10.5120   -14.3090 h1        15 MOL       0.042200
    206 H115        29.2370   -12.1070   -14.4360 h1        15 MOL       0.042200
    207 H116        32.0980   -11.6230   -13.7790 h1        15 MOL       0.042200
    208 H117        31.2600   -13.2190   -13.8990 h1        15 MOL       0.042200
    209 H118        31.4990   -13.5200   -11.5270 h1        15 MOL       0.042700
    210 H119        32.3350   -11.9230   -11.4100 h1        15 MOL       0.042700
    211 H120        33.4800   -14.5910   -10.9590 h1        15 MOL       0.042700
    212 H121        34.3140   -12.9910   -10.8490 h1        15 MOL       0.042700
    213 H122        35.6180   -13.5340   -12.7960 h1        15 MOL       0.042200
    214 H123        34.7930   -15.1350   -12.9080 h1        15 MOL       0.042200
    215 H124        37.6190   -14.5770   -12.3290 h1        15 MOL       0.033700
    216 H125        36.8200   -16.1950   -12.4280 h1        15 MOL       0.033700
    217 H126        37.1860   -16.5060   -10.0210 h1        15 MOL       0.059200
    218 H127        37.9700   -14.8920    -9.9350 h1        15 MOL       0.059200
    219 H128        38.8210   -17.1240   -11.5380 ho        15 MOL       0.398000
@<TRIPOS>BOND
     1     1    10 1   
     2     1    13 1   
     3     1    94 1   
     4     2    11 1   
     5     2    12 1   
     6     2    95 1   
     7     3    14 1   
     8     3    15 1   
     9     3   100 1   
    10     4     5 ar  
    11     4     9 ar  
    12     4    15 1   
    13     5     6 ar  
    14     5    91 1   
    15     6     7 ar  
    16     6    11 1   
    17     7     8 ar  
    18     7    92 1   
    19     8     9 ar  
    20     8    10 1   
    21     9    93 1   
    22    10    73 2   
    23    11    74 2   
    24    12    35 1   
    25    12    96 1   
    26    12    97 1   
    27    13    54 1   
    28    13    98 1   
    29    13    99 1   
    30    14    16 1   
    31    14   101 1   
    32    14   102 1   
    33    15    75 2   
    34    16    17 1   
    35    16   103 1   
    36    16   104 1   
    37    17    18 1   
    38    17   105 1   
    39    17   106 1   
    40    18    19 1   
    41    18   107 1   
    42    18   108 1   
    43    19    20 1   
    44    19   109 1   
    45    19   110 1   
    46    20    21 1   
    47    20   111 1   
    48    20   112 1   
    49    21    22 1   
    50    21   113 1   
    51    21   114 1   
    52    22    23 1   
    53    22   115 1   
    54    22   116 1   
    55    23    24 1   
    56    23   117 1   
    57    23   118 1   
    58    24    25 1   
    59    24   119 1   
    60    24   120 1   
    61    25    26 1   
    62    25   121 1   
    63    25   122 1   
    64    26    76 1   
    65    26   123 1   
    66    26   124 1   
    67    27    28 1   
    68    27    76 1   
    69    27   125 1   
    70    27   126 1   
    71    28    77 1   
    72    28   127 1   
    73    28   128 1   
    74    29    30 1   
    75    29    77 1   
    76    29   129 1   
    77    29   130 1   
    78    30    78 1   
    79    30   131 1   
    80    30   132 1   
    81    31    32 1   
    82    31    78 1   
    83    31   133 1   
    84    31   134 1   
    85    32    79 1   
    86    32   135 1   
    87    32   136 1   
    88    33    34 1   
    89    33    79 1   
    90    33   137 1   
    91    33   138 1   
    92    34    80 1   
    93    34   139 1   
    94    34   140 1   
    95    35    36 1   
    96    35   142 1   
    97    35   143 1   
    98    36    37 1   
    99    36   144 1   
   100    36   145 1   
   101    37    38 1   
   102    37   146 1   
   103    37   147 1   
   104    38    39 1   
   105    38   148 1   
   106    38   149 1   
   107    39    40 1   
   108    39   150 1   
   109    39   151 1   
   110    40    41 1   
   111    40   152 1   
   112    40   153 1   
   113    41    42 1   
   114    41   154 1   
   115    41   155 1   
   116    42    43 1   
   117    42   156 1   
   118    42   157 1   
   119    43    44 1   
   120    43   158 1   
   121    43   159 1   
   122    44    45 1   
   123    44   160 1   
   124    44   161 1   
   125    45    81 1   
   126    45   162 1   
   127    45   163 1   
   128    46    47 1   
   129    46    81 1   
   130    46   164 1   
   131    46   165 1   
   132    47    82 1   
   133    47   166 1   
   134    47   167 1   
   135    48    49 1   
   136    48    82 1   
   137    48   168 1   
   138    48   169 1   
   139    49    83 1   
   140    49   170 1   
   141    49   171 1   
   142    50    51 1   
   143    50    83 1   
   144    50   172 1   
   145    50   173 1   
   146    51    84 1   
   147    51   174 1   
   148    51   175 1   
   149    52    53 1   
   150    52    84 1   
   151    52   176 1   
   152    52   177 1   
   153    53    85 1   
   154    53   178 1   
   155    53   179 1   
   156    54    55 1   
   157    54   181 1   
   158    54   182 1   
   159    55    56 1   
   160    55   183 1   
   161    55   184 1   
   162    56    57 1   
   163    56   185 1   
   164    56   186 1   
   165    57    58 1   
   166    57   187 1   
   167    57   188 1   
   168    58    59 1   
   169    58   189 1   
   170    58   190 1   
   171    59    60 1   
   172    59   191 1   
   173    59   192 1   
   174    60    61 1   
   175    60   193 1   
   176    60   194 1   
   177    61    62 1   
   178    61   195 1   
   179    61   196 1   
   180    62    63 1   
   181    62   197 1   
   182    62   198 1   
   183    63    64 1   
   184    63   199 1   
   185    63   200 1   
   186    64    86 1   
   187    64   201 1   
   188    64   202 1   
   189    65    66 1   
   190    65    86 1   
   191    65   203 1   
   192    65   204 1   
   193    66    87 1   
   194    66   205 1   
   195    66   206 1   
   196    67    68 1   
   197    67    87 1   
   198    67   207 1   
   199    67   208 1   
   200    68    88 1   
   201    68   209 1   
   202    68   210 1   
   203    69    70 1   
   204    69    88 1   
   205    69   211 1   
   206    69   212 1   
   207    70    89 1   
   208    70   213 1   
   209    70   214 1   
   210    71    72 1   
   211    71    89 1   
   212    71   215 1   
   213    71   216 1   
   214    72    90 1   
   215    72   217 1   
   216    72   218 1   
   217    80   141 1   
   218    85   180 1   
   219    90   219 1   
@<TRIPOS>SUBSTRUCTURE
     1 MOL         1 TEMP              0 ****  ****    0 ROOT
