@<TRIPOS>MOLECULE
MOL
  219   219     1     0     0
SMALL
bcc


@<TRIPOS>ATOM
      1 N            8.3310    -7.6590   -11.5520 n         13 MOL      -0.558567
      2 N1           8.3020    -4.6700    -5.7540 n         13 MOL      -0.558567
      3 N2           3.6330    -3.5620    -9.7650 n         13 MOL      -0.558567
      4 C            5.4950    -5.0950    -9.6170 ca        13 MOL      -0.157933
      5 C1           5.7030    -4.8610    -8.2500 ca        13 MOL      -0.037333
      6 C2           6.8810    -5.2570    -7.6130 ca        13 MOL      -0.157933
      7 C3           7.8550    -5.9370    -8.3560 ca        13 MOL      -0.037333
      8 C4           7.6620    -6.2270    -9.7130 ca        13 MOL      -0.157933
      9 C5           6.4790    -5.7890   -10.3350 ca        13 MOL      -0.037333
     10 C6           8.7310    -6.9820   -10.4690 c         13 MOL       0.669033
     11 C7           7.0620    -4.9870    -6.1420 c         13 MOL       0.669033
     12 C8           8.6620    -4.4910    -4.3740 c3        13 MOL       0.084000
     13 C9           9.2520    -8.4100   -12.4140 c3        13 MOL       0.084000
     14 C10          2.4160    -3.0420   -10.2950 c3        13 MOL       0.084000
     15 C11          4.2280    -4.6360   -10.3000 c         13 MOL       0.669033
     16 C12          1.8060    -2.0870    -9.2630 c3        13 MOL      -0.105400
     17 C13          0.4930    -1.5020    -9.7870 c3        13 MOL      -0.077400
     18 C14         -0.0650    -0.5640    -8.7090 c3        13 MOL      -0.078733
     19 C15         -1.3880     0.0570    -9.1690 c3        13 MOL      -0.079400
     20 C16         -1.8970     0.9780    -8.0560 c3        13 MOL      -0.079067
     21 C17         -3.2200     1.6190    -8.4770 c3        13 MOL      -0.079400
     22 C18         -3.7030     2.5320    -7.3450 c3        13 MOL      -0.079400
     23 C19         -5.0300     3.1860    -7.7490 c3        13 MOL      -0.078400
     24 C20         -5.5110     4.1010    -6.6170 c3        13 MOL      -0.078400
     25 C21         -6.8350     4.7500    -7.0340 c3        13 MOL      -0.084400
     26 C22         -7.3330     5.6740    -5.9130 c3        13 MOL       0.133400
     27 C23         -9.0380     7.1200    -5.3270 c3        13 MOL       0.128400
     28 C24        -10.3020     7.7110    -5.8070 c3        13 MOL       0.130400
     29 C25        -11.8380     9.1350    -5.1050 c3        13 MOL       0.130400
     30 C26        -12.1270     9.9500    -3.9730 c3        13 MOL       0.129400
     31 C27        -13.7520    11.3590    -3.4560 c3        13 MOL       0.130400
     32 C28        -14.9320    11.8160    -4.1240 c3        13 MOL       0.128400
     33 C29        -16.6470    13.1760    -3.7910 c3        13 MOL       0.094400
     34 C30        -17.1450    14.0760    -2.7310 c3        13 MOL       0.125400
     35 C31         10.2170    -9.3350   -11.6300 c3        13 MOL      -0.105400
     36 C32         11.1650   -10.0160   -12.6150 c3        13 MOL      -0.077400
     37 C33         12.1510   -10.8690   -11.8200 c3        13 MOL      -0.078733
     38 C34         13.1470   -11.5300   -12.7720 c3        13 MOL      -0.079400
     39 C35         14.1480   -12.3270   -11.9400 c3        13 MOL      -0.079067
     40 C36         15.1790   -12.9730   -12.8610 c3        13 MOL      -0.079400
     41 C37         16.1870   -13.7280   -11.9970 c3        13 MOL      -0.079400
     42 C38         17.2480   -14.3690   -12.8940 c3        13 MOL      -0.078400
     43 C39         18.2630   -15.1000   -12.0150 c3        13 MOL      -0.078400
     44 C40         19.3290   -15.7350   -12.9080 c3        13 MOL      -0.084400
     45 C41         20.3560   -16.4600   -12.0320 c3        13 MOL       0.133400
     46 C42         22.2910   -17.7110   -12.1040 c3        13 MOL       0.128400
     47 C43         23.2660   -18.3180   -13.0260 c3        13 MOL       0.130400
     48 C44         25.0720   -19.5770   -12.9400 c3        13 MOL       0.130400
     49 C45         25.9220   -20.2110   -11.9900 c3        13 MOL       0.129400
     50 C46         27.7030   -21.5210   -12.1690 c3        13 MOL       0.130400
     51 C47         28.4220   -22.0580   -13.2860 c3        13 MOL       0.128400
     52 C48         30.1410   -23.3690   -13.7410 c3        13 MOL       0.094400
     53 C49         31.1650   -24.1450   -13.0120 c3        13 MOL       0.125400
     54 C50          8.0450    -3.2520    -3.7130 c3        13 MOL      -0.105400
     55 C51          8.5770    -3.2820    -2.2800 c3        13 MOL      -0.077400
     56 C52          8.0860    -2.1100    -1.4380 c3        13 MOL      -0.078733
     57 C53          8.7380    -2.2960    -0.0600 c3        13 MOL      -0.079400
     58 C54          8.3620    -1.1840     0.9210 c3        13 MOL      -0.079067
     59 C55          9.1010    -1.4980     2.2280 c3        13 MOL      -0.079400
     60 C56          8.8200    -0.4450     3.3010 c3        13 MOL      -0.079400
     61 C57          9.6200    -0.8480     4.5520 c3        13 MOL      -0.078400
     62 C58          9.4130     0.1580     5.6900 c3        13 MOL      -0.078400
     63 C59         10.2530    -0.3080     6.8910 c3        13 MOL      -0.084400
     64 C60         10.0950     0.6680     8.0670 c3        13 MOL       0.133400
     65 C61         10.7860     1.0680    10.2320 c3        13 MOL       0.128400
     66 C62         11.6370     0.5560    11.3220 c3        13 MOL       0.130400
     67 C63         12.1570     1.1890    13.3880 c3        13 MOL       0.130400
     68 C64         11.8210     2.2590    14.2570 c3        13 MOL       0.129400
     69 C65         12.3480     2.8830    16.2960 c3        13 MOL       0.130400
     70 C66         13.1890     2.3890    17.3390 c3        13 MOL       0.128400
     71 C67         13.7950     2.9680    19.3960 c3        13 MOL       0.094400
     72 C68         13.5100     4.0700    20.3370 c3        13 MOL       0.125400
     73 O            9.9020    -6.9880   -10.0830 o         13 MOL      -0.606100
     74 O1           6.1100    -5.0600    -5.3630 o         13 MOL      -0.606100
     75 O2           3.7810    -5.2190   -11.2880 o         13 MOL      -0.606100
     76 O3          -8.5680     6.2740    -6.3210 os        13 MOL      -0.427600
     77 O4         -10.7060     8.5360    -4.7820 os        13 MOL      -0.430600
     78 O5         -13.2620    10.5210    -4.3640 os        13 MOL      -0.430600
     79 O6         -15.4770    12.6610    -3.2720 os        13 MOL      -0.425600
     80 O7         -18.3380    14.6420    -3.1620 oh        13 MOL      -0.592800
     81 O8          21.3460   -17.0530   -12.8740 os        13 MOL      -0.427600
     82 O9          24.1660   -18.9590   -12.2060 os        13 MOL      -0.430600
     83 O10         26.7750   -20.8150   -12.8080 os        13 MOL      -0.430600
     84 O11         29.3760   -22.7920   -12.7470 os        13 MOL      -0.425600
     85 O12         31.9920   -24.7630   -13.9450 oh        13 MOL      -0.592800
     86 O13         10.8990     0.2050     9.1630 os        13 MOL      -0.427600
     87 O14         11.4520     1.4820    12.3150 os        13 MOL      -0.430600
     88 O15         12.5300     1.9730    15.3420 os        13 MOL      -0.430600
     89 O16         13.0280     3.2800    18.2970 os        13 MOL      -0.425600
     90 O17         14.2480     3.8640    21.4920 oh        13 MOL      -0.592800
     91 H253         4.9690    -4.3850    -7.7020 ha        13 MOL       0.163333
     92 H254         8.7310    -6.2300    -7.8950 ha        13 MOL       0.163333
     93 H255         6.3330    -5.9820   -11.3380 ha        13 MOL       0.163333
     94 H250         7.3780    -7.6070   -11.7930 hn        13 MOL       0.311500
     95 H251         8.9930    -4.6040    -6.4520 hn        13 MOL       0.311500
     96 H5           9.7560    -4.4160    -4.3040 h1        13 MOL       0.064700
     97 H6           8.3120    -5.3670    -3.8100 h1        13 MOL       0.064700
     98 H7           9.8690    -7.6820   -12.9600 h1        13 MOL       0.064700
     99 H8           8.6720    -9.0030   -13.1350 h1        13 MOL       0.064700
    100 H252         4.1020    -3.1110    -9.0260 hn        13 MOL       0.311500
    101 H10          1.7310    -3.8720   -10.5200 h1        13 MOL       0.064700
    102 H11          2.6280    -2.5000   -11.2280 h1        13 MOL       0.064700
    103 H12          2.5120    -1.2680    -9.0610 hc        13 MOL       0.046033
    104 H13          1.6090    -2.6380    -8.3310 hc        13 MOL       0.046033
    105 H14         -0.2220    -2.3140    -9.9830 hc        13 MOL       0.043367
    106 H15          0.6790    -0.9420   -10.7140 hc        13 MOL       0.043367
    107 H16          0.6620     0.2370    -8.5130 hc        13 MOL       0.040867
    108 H17         -0.2360    -1.1360    -7.7860 hc        13 MOL       0.040867
    109 H18         -2.1260    -0.7360    -9.3590 hc        13 MOL       0.040867
    110 H19         -1.2280     0.6390   -10.0880 hc        13 MOL       0.040867
    111 H20         -1.1540     1.7660    -7.8660 hc        13 MOL       0.040033
    112 H21         -2.0510     0.3910    -7.1390 hc        13 MOL       0.040033
    113 H22         -3.9680     0.8350    -8.6640 hc        13 MOL       0.040367
    114 H23         -3.0700     2.2100    -9.3910 hc        13 MOL       0.040367
    115 H24         -2.9500     3.3120    -7.1590 hc        13 MOL       0.039700
    116 H25         -3.8480     1.9370    -6.4320 hc        13 MOL       0.039700
    117 H26         -5.7820     2.4070    -7.9350 hc        13 MOL       0.041700
    118 H27         -4.8830     3.7800    -8.6620 hc        13 MOL       0.041700
    119 H28         -4.7600     4.8820    -6.4310 hc        13 MOL       0.040200
    120 H29         -5.6610     3.5090    -5.7030 hc        13 MOL       0.040200
    121 H30         -7.5830     3.9660    -7.2230 hc        13 MOL       0.055033
    122 H31         -6.6800     5.3370    -7.9510 hc        13 MOL       0.055033
    123 H32         -6.5860     6.4600    -5.7250 h1        13 MOL       0.027700
    124 H33         -7.4910     5.0890    -4.9940 h1        13 MOL       0.027700
    125 H34         -8.3110     7.9210    -5.1350 h1        13 MOL       0.039700
    126 H35         -9.2240     6.5570    -4.4020 h1        13 MOL       0.039700
    127 H36        -11.0490     6.9220    -5.9920 h1        13 MOL       0.042533
    128 H37        -10.1280     8.2900    -6.7280 h1        13 MOL       0.042533
    129 H38        -12.6440     8.4050    -5.2620 h1        13 MOL       0.042033
    130 H39        -11.7130     9.7620    -5.9980 h1        13 MOL       0.042033
    131 H40        -11.3320    10.6930    -3.8140 h1        13 MOL       0.042700
    132 H41        -12.2690     9.3340    -3.0720 h1        13 MOL       0.042700
    133 H42        -13.0640    12.1950    -3.2600 h1        13 MOL       0.042700
    134 H43        -14.0090    10.8410    -2.5190 h1        13 MOL       0.042700
    135 H44        -15.6020    10.9680    -4.3250 h1        13 MOL       0.042200
    136 H45        -14.6630    12.3180    -5.0640 h1        13 MOL       0.042200
    137 H46        -17.3740    12.3710    -3.9830 h1        13 MOL       0.033700
    138 H47        -16.4490    13.7380    -4.7170 h1        13 MOL       0.033700
    139 H48        -16.4010    14.8600    -2.5370 h1        13 MOL       0.059200
    140 H49        -17.3160    13.4930    -1.8150 h1        13 MOL       0.059200
    141 H50        -18.1830    15.1790    -3.9800 ho        13 MOL       0.398000
    142 H51          9.6510   -10.0910   -11.0680 hc        13 MOL       0.046033
    143 H52         10.8170    -8.7340   -10.9350 hc        13 MOL       0.046033
    144 H53         11.7220    -9.2480   -13.1700 hc        13 MOL       0.043367
    145 H54         10.5970   -10.6410   -13.3180 hc        13 MOL       0.043367
    146 H55         11.6080   -11.6390   -11.2530 hc        13 MOL       0.040867
    147 H56         12.7000   -10.2210   -11.1230 hc        13 MOL       0.040867
    148 H57         13.6840   -10.7530   -13.3350 hc        13 MOL       0.040867
    149 H58         12.6200   -12.1950   -13.4720 hc        13 MOL       0.040867
    150 H59         13.6210   -13.1050   -11.3680 hc        13 MOL       0.040033
    151 H60         14.6610   -11.6460   -11.2470 hc        13 MOL       0.040033
    152 H61         15.7020   -12.1910   -13.4310 hc        13 MOL       0.040367
    153 H62         14.6820   -13.6650   -13.5550 hc        13 MOL       0.040367
    154 H63         15.6690   -14.5070   -11.4200 hc        13 MOL       0.039700
    155 H64         16.6720   -13.0220   -11.3080 hc        13 MOL       0.039700
    156 H65         17.7620   -13.5870   -13.4710 hc        13 MOL       0.041700
    157 H66         16.7710   -15.0800   -13.5820 hc        13 MOL       0.041700
    158 H67         17.7540   -15.8810   -11.4340 hc        13 MOL       0.040200
    159 H68         18.7380   -14.3820   -11.3300 hc        13 MOL       0.040200
    160 H69         19.8320   -14.9500   -13.4920 hc        13 MOL       0.055033
    161 H70         18.8520   -16.4520   -13.5920 hc        13 MOL       0.055033
    162 H71         19.8520   -17.2420   -11.4450 h1        13 MOL       0.027700
    163 H72         20.8320   -15.7380   -11.3510 h1        13 MOL       0.027700
    164 H73         21.8130   -18.5010   -11.5090 h1        13 MOL       0.039700
    165 H74         22.8030   -17.0020   -11.4380 h1        13 MOL       0.039700
    166 H75         23.7670   -17.5420   -13.6260 h1        13 MOL       0.042533
    167 H76         22.7610   -19.0390   -13.6870 h1        13 MOL       0.042533
    168 H77         25.6460   -18.8650   -13.5490 h1        13 MOL       0.042033
    169 H78         24.6030   -20.3340   -13.5850 h1        13 MOL       0.042033
    170 H79         25.3580   -20.9350   -11.3840 h1        13 MOL       0.042700
    171 H80         26.4200   -19.4700   -11.3460 h1        13 MOL       0.042700
    172 H81         27.2580   -22.3270   -11.5660 h1        13 MOL       0.042700
    173 H82         28.3500   -20.8820   -11.5490 h1        13 MOL       0.042700
    174 H83         28.8440   -21.2410   -13.8880 h1        13 MOL       0.042200
    175 H84         27.7510   -22.6740   -13.9010 h1        13 MOL       0.042200
    176 H85         30.6190   -22.5950   -14.3630 h1        13 MOL       0.033700
    177 H86         29.5270   -24.0330   -14.3690 h1        13 MOL       0.033700
    178 H87         30.6730   -24.9000   -12.3840 h1        13 MOL       0.059200
    179 H88         31.7530   -23.4640   -12.3820 h1        13 MOL       0.059200
    180 H89         31.4650   -25.3870   -14.5050 ho        13 MOL       0.398000
    181 H90          6.9460    -3.3120    -3.7200 hc        13 MOL       0.046033
    182 H91          8.3750    -2.3360    -4.2240 hc        13 MOL       0.046033
    183 H92          9.6750    -3.2500    -2.3170 hc        13 MOL       0.043367
    184 H93          8.2600    -4.2200    -1.8020 hc        13 MOL       0.043367
    185 H94          6.9910    -2.1300    -1.3550 hc        13 MOL       0.040867
    186 H95          8.4100    -1.1630    -1.8880 hc        13 MOL       0.040867
    187 H96          9.8300    -2.2960    -0.1870 hc        13 MOL       0.040867
    188 H97          8.4210    -3.2620     0.3580 hc        13 MOL       0.040867
    189 H98          7.2750    -1.1740     1.0890 hc        13 MOL       0.040033
    190 H99          8.6880    -0.2100     0.5300 hc        13 MOL       0.040033
    191 H100        10.1820    -1.5210     2.0270 hc        13 MOL       0.040367
    192 H101         8.7800    -2.4830     2.5960 hc        13 MOL       0.040367
    193 H102         7.7440    -0.4180     3.5290 hc        13 MOL       0.039700
    194 H103         9.1490     0.5430     2.9480 hc        13 MOL       0.039700
    195 H104        10.6880    -0.8840     4.2970 hc        13 MOL       0.041700
    196 H105         9.2930    -1.8430     4.8860 hc        13 MOL       0.041700
    197 H106         8.3500     0.1960     5.9680 hc        13 MOL       0.040200
    198 H107         9.7480     1.1550     5.3690 hc        13 MOL       0.040200
    199 H108        11.3110    -0.3510     6.5950 hc        13 MOL       0.055033
    200 H109         9.9200    -1.3100     7.2000 hc        13 MOL       0.055033
    201 H110         9.0390     0.7120     8.3730 h1        13 MOL       0.027700
    202 H111        10.4320     1.6700     7.7600 h1        13 MOL       0.027700
    203 H112         9.7430     1.1160    10.5750 h1        13 MOL       0.039700
    204 H113        11.1290     2.0730     9.9470 h1        13 MOL       0.039700
    205 H114        12.6920     0.5210    11.0070 h1        13 MOL       0.042533
    206 H115        11.3010    -0.4430    11.6440 h1        13 MOL       0.042533
    207 H116        13.2350     1.1910    13.1760 h1        13 MOL       0.042033
    208 H117        11.8520     0.2270    13.8240 h1        13 MOL       0.042033
    209 H118        10.7410     2.2570    14.4680 h1        13 MOL       0.042700
    210 H119        12.1240     3.2200    13.8170 h1        13 MOL       0.042700
    211 H120        11.3000     2.9170    16.6270 h1        13 MOL       0.042700
    212 H121        12.6820     3.8800    15.9730 h1        13 MOL       0.042700
    213 H122        14.2330     2.3540    16.9970 h1        13 MOL       0.042200
    214 H123        12.8580     1.3910    17.6570 h1        13 MOL       0.042200
    215 H124        14.8650     2.9540    19.1340 h1        13 MOL       0.033700
    216 H125        13.4950     1.9990    19.8240 h1        13 MOL       0.033700
    217 H126        12.4370     4.0840    20.5700 h1        13 MOL       0.059200
    218 H127        13.8000     5.0230    19.8730 h1        13 MOL       0.059200
    219 H128        13.9790     3.0130    21.9230 ho        13 MOL       0.398000
@<TRIPOS>BOND
     1     1    10 1   
     2     1    13 1   
     3     1    94 1   
     4     2    11 1   
     5     2    12 1   
     6     2    95 1   
     7     3    14 1   
     8     3    15 1   
     9     3   100 1   
    10     4     5 ar  
    11     4     9 ar  
    12     4    15 1   
    13     5     6 ar  
    14     5    91 1   
    15     6     7 ar  
    16     6    11 1   
    17     7     8 ar  
    18     7    92 1   
    19     8     9 ar  
    20     8    10 1   
    21     9    93 1   
    22    10    73 2   
    23    11    74 2   
    24    12    54 1   
    25    12    96 1   
    26    12    97 1   
    27    13    35 1   
    28    13    98 1   
    29    13    99 1   
    30    14    16 1   
    31    14   101 1   
    32    14   102 1   
    33    15    75 2   
    34    16    17 1   
    35    16   103 1   
    36    16   104 1   
    37    17    18 1   
    38    17   105 1   
    39    17   106 1   
    40    18    19 1   
    41    18   107 1   
    42    18   108 1   
    43    19    20 1   
    44    19   109 1   
    45    19   110 1   
    46    20    21 1   
    47    20   111 1   
    48    20   112 1   
    49    21    22 1   
    50    21   113 1   
    51    21   114 1   
    52    22    23 1   
    53    22   115 1   
    54    22   116 1   
    55    23    24 1   
    56    23   117 1   
    57    23   118 1   
    58    24    25 1   
    59    24   119 1   
    60    24   120 1   
    61    25    26 1   
    62    25   121 1   
    63    25   122 1   
    64    26    76 1   
    65    26   123 1   
    66    26   124 1   
    67    27    28 1   
    68    27    76 1   
    69    27   125 1   
    70    27   126 1   
    71    28    77 1   
    72    28   127 1   
    73    28   128 1   
    74    29    30 1   
    75    29    77 1   
    76    29   129 1   
    77    29   130 1   
    78    30    78 1   
    79    30   131 1   
    80    30   132 1   
    81    31    32 1   
    82    31    78 1   
    83    31   133 1   
    84    31   134 1   
    85    32    79 1   
    86    32   135 1   
    87    32   136 1   
    88    33    34 1   
    89    33    79 1   
    90    33   137 1   
    91    33   138 1   
    92    34    80 1   
    93    34   139 1   
    94    34   140 1   
    95    35    36 1   
    96    35   142 1   
    97    35   143 1   
    98    36    37 1   
    99    36   144 1   
   100    36   145 1   
   101    37    38 1   
   102    37   146 1   
   103    37   147 1   
   104    38    39 1   
   105    38   148 1   
   106    38   149 1   
   107    39    40 1   
   108    39   150 1   
   109    39   151 1   
   110    40    41 1   
   111    40   152 1   
   112    40   153 1   
   113    41    42 1   
   114    41   154 1   
   115    41   155 1   
   116    42    43 1   
   117    42   156 1   
   118    42   157 1   
   119    43    44 1   
   120    43   158 1   
   121    43   159 1   
   122    44    45 1   
   123    44   160 1   
   124    44   161 1   
   125    45    81 1   
   126    45   162 1   
   127    45   163 1   
   128    46    47 1   
   129    46    81 1   
   130    46   164 1   
   131    46   165 1   
   132    47    82 1   
   133    47   166 1   
   134    47   167 1   
   135    48    49 1   
   136    48    82 1   
   137    48   168 1   
   138    48   169 1   
   139    49    83 1   
   140    49   170 1   
   141    49   171 1   
   142    50    51 1   
   143    50    83 1   
   144    50   172 1   
   145    50   173 1   
   146    51    84 1   
   147    51   174 1   
   148    51   175 1   
   149    52    53 1   
   150    52    84 1   
   151    52   176 1   
   152    52   177 1   
   153    53    85 1   
   154    53   178 1   
   155    53   179 1   
   156    54    55 1   
   157    54   181 1   
   158    54   182 1   
   159    55    56 1   
   160    55   183 1   
   161    55   184 1   
   162    56    57 1   
   163    56   185 1   
   164    56   186 1   
   165    57    58 1   
   166    57   187 1   
   167    57   188 1   
   168    58    59 1   
   169    58   189 1   
   170    58   190 1   
   171    59    60 1   
   172    59   191 1   
   173    59   192 1   
   174    60    61 1   
   175    60   193 1   
   176    60   194 1   
   177    61    62 1   
   178    61   195 1   
   179    61   196 1   
   180    62    63 1   
   181    62   197 1   
   182    62   198 1   
   183    63    64 1   
   184    63   199 1   
   185    63   200 1   
   186    64    86 1   
   187    64   201 1   
   188    64   202 1   
   189    65    66 1   
   190    65    86 1   
   191    65   203 1   
   192    65   204 1   
   193    66    87 1   
   194    66   205 1   
   195    66   206 1   
   196    67    68 1   
   197    67    87 1   
   198    67   207 1   
   199    67   208 1   
   200    68    88 1   
   201    68   209 1   
   202    68   210 1   
   203    69    70 1   
   204    69    88 1   
   205    69   211 1   
   206    69   212 1   
   207    70    89 1   
   208    70   213 1   
   209    70   214 1   
   210    71    72 1   
   211    71    89 1   
   212    71   215 1   
   213    71   216 1   
   214    72    90 1   
   215    72   217 1   
   216    72   218 1   
   217    80   141 1   
   218    85   180 1   
   219    90   219 1   
@<TRIPOS>SUBSTRUCTURE
     1 MOL         1 TEMP              0 ****  ****    0 ROOT
