@<TRIPOS>MOLECULE
MOL
  219   219     1     0     0
SMALL
bcc


@<TRIPOS>ATOM
      1 N           11.6840    -5.7350   -12.1420 n         14 MOL      -0.563567
      2 N1           8.8860    -1.4220    -8.2190 n         14 MOL      -0.563567
      3 N2           5.8090    -1.5560   -12.3770 n         14 MOL      -0.563567
      4 C            7.7820    -2.9480   -12.0800 ca        14 MOL      -0.153933
      5 C1           7.9890    -2.5920   -10.7380 ca        14 MOL      -0.041000
      6 C2           9.1680    -2.9500   -10.0660 ca        14 MOL      -0.153933
      7 C3          10.1460    -3.6780   -10.7560 ca        14 MOL      -0.041000
      8 C4           9.9670    -4.0400   -12.1000 ca        14 MOL      -0.153933
      9 C5           8.7870    -3.6610   -12.7480 ca        14 MOL      -0.041000
     10 C6          11.0140    -4.8210   -12.8520 c         14 MOL       0.669367
     11 C7           9.3740    -2.6020    -8.6130 c         14 MOL       0.669367
     12 C8           8.9090    -0.9180    -6.8510 c3        14 MOL       0.084333
     13 C9          12.6950    -6.5300   -12.7620 c3        14 MOL       0.084333
     14 C10          4.5770    -1.1930   -13.0270 c3        14 MOL       0.084333
     15 C11          6.4980    -2.6220   -12.8040 c         14 MOL       0.669367
     16 C12          3.8330    -0.1280   -12.2110 c3        14 MOL      -0.104400
     17 C13          2.5280     0.2430   -12.9210 c3        14 MOL      -0.077400
     18 C14          1.8040     1.3040   -12.0840 c3        14 MOL      -0.078400
     19 C15          0.4870     1.7010   -12.7640 c3        14 MOL      -0.079400
     20 C16         -0.2110     2.7600   -11.9020 c3        14 MOL      -0.078733
     21 C17         -1.5300     3.1720   -12.5640 c3        14 MOL      -0.079400
     22 C18         -2.2130     4.2290   -11.6900 c3        14 MOL      -0.079400
     23 C19         -3.5360     4.6540   -12.3410 c3        14 MOL      -0.078400
     24 C20         -4.2160     5.7140   -11.4660 c3        14 MOL      -0.078400
     25 C21         -5.5350     6.1370   -12.1250 c3        14 MOL      -0.084400
     26 C22         -6.2230     7.2010   -11.2560 c3        14 MOL       0.133400
     27 C23         -8.0810     8.5590   -11.1070 c3        14 MOL       0.128400
     28 C24         -9.3330     8.9410   -11.7880 c3        14 MOL       0.130400
     29 C25        -11.0160    10.3440   -11.4500 c3        14 MOL       0.130400
     30 C26        -11.4230    11.3060   -10.4840 c3        14 MOL       0.129400
     31 C27        -13.1400    12.6740   -10.2650 c3        14 MOL       0.130400
     32 C28        -14.3080    12.9640   -11.0370 c3        14 MOL       0.128400
     33 C29        -16.0970    14.2700   -10.9580 c3        14 MOL       0.094400
     34 C30        -16.6720    15.2840   -10.0500 c3        14 MOL       0.125400
     35 C31         13.7350    -6.9740   -11.7270 c3        14 MOL      -0.104400
     36 C32         14.7940    -7.8260   -12.4330 c3        14 MOL      -0.077400
     37 C33         15.8480    -8.2770   -11.4160 c3        14 MOL      -0.078400
     38 C34         16.9020    -9.1280   -12.1350 c3        14 MOL      -0.079400
     39 C35         17.9670    -9.5870   -11.1330 c3        14 MOL      -0.078733
     40 C36         19.0040   -10.4360   -11.8750 c3        14 MOL      -0.079400
     41 C37         20.0820   -10.9090   -10.8940 c3        14 MOL      -0.079400
     42 C38         21.1040   -11.7610   -11.6620 c3        14 MOL      -0.078400
     43 C39         22.2000   -12.2570   -10.7100 c3        14 MOL      -0.078400
     44 C40         23.1930   -13.1080   -11.5140 c3        14 MOL      -0.084400
     45 C41         24.3080   -13.6310   -10.5930 c3        14 MOL       0.133400
     46 C42         26.2270   -14.9220   -10.5670 c3        14 MOL       0.128400
     47 C43         27.1110   -15.7400   -11.4200 c3        14 MOL       0.130400
     48 C44         28.9380   -16.9700   -11.2070 c3        14 MOL       0.130400
     49 C45         29.8570   -17.3700   -10.1960 c3        14 MOL       0.129400
     50 C46         31.6540   -18.6520   -10.1420 c3        14 MOL       0.130400
     51 C47         32.3720   -19.4250   -11.1080 c3        14 MOL       0.128400
     52 C48         34.1550   -20.7370   -11.2270 c3        14 MOL       0.094400
     53 C49         35.2070   -21.2390   -10.3200 c3        14 MOL       0.125400
     54 C50         10.0610    -1.3530    -5.9220 c3        14 MOL      -0.104400
     55 C51          9.8110    -0.5970    -4.6160 c3        14 MOL      -0.077400
     56 C52         10.8720    -0.8770    -3.5570 c3        14 MOL      -0.078400
     57 C53         10.4760    -0.0240    -2.3450 c3        14 MOL      -0.079400
     58 C54         11.4540    -0.1680    -1.1770 c3        14 MOL      -0.078733
     59 C55         10.9300     0.7530    -0.0680 c3        14 MOL      -0.079400
     60 C56         11.8270     0.7220     1.1710 c3        14 MOL      -0.079400
     61 C57         11.2050     1.6900     2.1920 c3        14 MOL      -0.078400
     62 C58         12.0290     1.7540     3.4850 c3        14 MOL      -0.078400
     63 C59         11.3300     2.7500     4.4260 c3        14 MOL      -0.084400
     64 C60         12.0960     2.8850     5.7530 c3        14 MOL       0.133400
     65 C61         12.0520     3.9950     7.7870 c3        14 MOL       0.128400
     66 C62         11.2820     4.9780     8.5720 c3        14 MOL       0.130400
     67 C63         11.4000     5.9600    10.5520 c3        14 MOL       0.130400
     68 C64         12.2460     5.9590    11.6940 c3        14 MOL       0.129400
     69 C65         12.2640     7.0000    13.6370 c3        14 MOL       0.130400
     70 C66         11.4290     7.9630    14.2840 c3        14 MOL       0.128400
     71 C67         11.3220     9.0570    16.2120 c3        14 MOL       0.094400
     72 C68         12.0980     9.1290    17.4660 c3        14 MOL       0.125400
     73 O           11.2090    -4.6350   -14.0550 o         14 MOL      -0.595767
     74 O1           9.9720    -3.3650    -7.8500 o         14 MOL      -0.595767
     75 O2           6.1190    -3.3080   -13.7560 o         14 MOL      -0.595767
     76 O3          -7.4520     7.5950   -11.8790 os        14 MOL      -0.427600
     77 O4          -9.8770     9.8930   -10.9590 os        14 MOL      -0.430600
     78 O5         -12.5620    11.7380   -11.0130 os        14 MOL      -0.430600
     79 O6         -14.9260    13.8930   -10.3350 os        14 MOL      -0.425600
     80 O7         -17.8730    15.7250   -10.5890 oh        14 MOL      -0.592800
     81 O8          25.2120   -14.4260   -11.3710 os        14 MOL      -0.427600
     82 O9          28.0810   -16.2000   -10.5600 os        14 MOL      -0.430600
     83 O10         30.6840   -18.1420   -10.8940 os        14 MOL      -0.430600
     84 O11         33.3580   -19.9600   -10.4140 os        14 MOL      -0.425600
     85 O12         36.0760   -22.0340   -11.0550 oh        14 MOL      -0.592800
     86 O13         11.3990     3.8280     6.5800 os        14 MOL      -0.427600
     87 O14         11.9860     5.0940     9.7460 os        14 MOL      -0.430600
     88 O15         11.6300     6.8370    12.4790 os        14 MOL      -0.430600
     89 O16         12.0230     8.1520    15.4460 os        14 MOL      -0.425600
     90 O17         11.4660    10.0170    18.3230 oh        14 MOL      -0.592800
     91 H253         7.2620    -2.0580   -10.2370 ha        14 MOL       0.160667
     92 H254        11.0130    -3.9530   -10.2680 ha        14 MOL       0.160667
     93 H255         8.6530    -3.9120   -13.7400 ha        14 MOL       0.160667
     94 H250        11.4270    -5.8510   -11.1990 hn        14 MOL       0.307833
     95 H251         8.4790    -0.8470    -8.9070 hn        14 MOL       0.307833
     96 H5           8.0140    -1.2850    -6.3940 h1        14 MOL       0.064700
     97 H6           9.0540     0.1280    -7.0260 h1        14 MOL       0.064700
     98 H7          13.1700    -5.9470   -13.5650 h1        14 MOL       0.064700
     99 H8          12.2260    -7.4200   -13.2030 h1        14 MOL       0.064700
    100 H252         6.1830    -1.0270   -11.6360 hn        14 MOL       0.307833
    101 H10          3.9570    -2.0940   -13.1440 h1        14 MOL       0.064700
    102 H11          4.8070    -0.8030   -14.0280 h1        14 MOL       0.064700
    103 H12          4.4610     0.7690   -12.1160 hc        14 MOL       0.044700
    104 H13          3.6020    -0.5240   -11.2130 hc        14 MOL       0.044700
    105 H14          1.8930    -0.6500   -13.0160 hc        14 MOL       0.043700
    106 H15          2.7510     0.6440   -13.9190 hc        14 MOL       0.043700
    107 H16          2.4470     2.1910   -11.9860 hc        14 MOL       0.040700
    108 H17          1.5910     0.8960   -11.0860 hc        14 MOL       0.040700
    109 H18         -0.1610     0.8190   -12.8590 hc        14 MOL       0.040867
    110 H19          0.6950     2.1160   -13.7610 hc        14 MOL       0.040867
    111 H20          0.4400     3.6400   -11.8050 hc        14 MOL       0.039867
    112 H21         -0.4160     2.3430   -10.9060 hc        14 MOL       0.039867
    113 H22         -2.1840     2.2940   -12.6610 hc        14 MOL       0.040533
    114 H23         -1.3270     3.5910   -13.5600 hc        14 MOL       0.040533
    115 H24         -1.5530     5.1030   -11.5920 hc        14 MOL       0.039700
    116 H25         -2.4110     3.8070   -10.6940 hc        14 MOL       0.039700
    117 H26         -4.1960     3.7810   -12.4390 hc        14 MOL       0.041867
    118 H27         -3.3360     5.0760   -13.3360 hc        14 MOL       0.041867
    119 H28         -3.5570     6.5880   -11.3680 hc        14 MOL       0.040033
    120 H29         -4.4190     5.2940   -10.4710 hc        14 MOL       0.040033
    121 H30         -6.1920     5.2600   -12.2240 hc        14 MOL       0.055200
    122 H31         -5.3270     6.5540   -13.1210 hc        14 MOL       0.055200
    123 H32         -5.5630     8.0760   -11.1570 h1        14 MOL       0.027700
    124 H33         -6.4310     6.7830   -10.2590 h1        14 MOL       0.027700
    125 H34         -7.4370     9.4440   -11.0090 h1        14 MOL       0.039700
    126 H35         -8.3140     8.1570   -10.1120 h1        14 MOL       0.039700
    127 H36        -10.0040     8.0720   -11.8820 h1        14 MOL       0.042367
    128 H37         -9.1180     9.3630   -12.7820 h1        14 MOL       0.042367
    129 H38        -11.7640     9.5430   -11.5290 h1        14 MOL       0.042367
    130 H39        -10.8670    10.8250   -12.4260 h1        14 MOL       0.042367
    131 H40        -10.6800    12.1140   -10.4060 h1        14 MOL       0.042700
    132 H41        -11.5820    10.8320    -9.5050 h1        14 MOL       0.042700
    133 H42        -12.5050    13.5680   -10.1700 h1        14 MOL       0.042700
    134 H43        -13.4150    12.2890    -9.2720 h1        14 MOL       0.042700
    135 H44        -14.9280    12.0610   -11.1340 h1        14 MOL       0.042200
    136 H45        -14.0230    13.3370   -12.0300 h1        14 MOL       0.042200
    137 H46        -16.7810    13.4110   -11.0540 h1        14 MOL       0.033700
    138 H47        -15.8920    14.7050   -11.9480 h1        14 MOL       0.033700
    139 H48        -15.9710    16.1230    -9.9480 h1        14 MOL       0.059200
    140 H49        -16.8480    14.8270    -9.0660 h1        14 MOL       0.059200
    141 H50        -17.7150    16.1500   -11.4700 ho        14 MOL       0.398000
    142 H51         13.2470    -7.5690   -10.9420 hc        14 MOL       0.044700
    143 H52         14.2110    -6.0910   -11.2790 hc        14 MOL       0.044700
    144 H53         15.2770    -7.2290   -13.2200 hc        14 MOL       0.043700
    145 H54         14.3150    -8.7060   -12.8830 hc        14 MOL       0.043700
    146 H55         15.3670    -8.8730   -10.6280 hc        14 MOL       0.040700
    147 H56         16.3290    -7.3950   -10.9690 hc        14 MOL       0.040700
    148 H57         17.3790    -8.5310   -12.9260 hc        14 MOL       0.040867
    149 H58         16.4190   -10.0090   -12.5830 hc        14 MOL       0.040867
    150 H59         17.4960   -10.1870   -10.3420 hc        14 MOL       0.039867
    151 H60         18.4570    -8.7090   -10.6870 hc        14 MOL       0.039867
    152 H61         19.4700    -9.8340   -12.6680 hc        14 MOL       0.040533
    153 H62         18.5080   -11.3090   -12.3210 hc        14 MOL       0.040533
    154 H63         19.6170   -11.5120   -10.1000 hc        14 MOL       0.039700
    155 H64         20.5830   -10.0370   -10.4480 hc        14 MOL       0.039700
    156 H65         21.5600   -11.1550   -12.4570 hc        14 MOL       0.041867
    157 H66         20.5920   -12.6250   -12.1080 hc        14 MOL       0.041867
    158 H67         21.7500   -12.8680    -9.9140 hc        14 MOL       0.040033
    159 H68         22.7220   -11.3980   -10.2640 hc        14 MOL       0.040033
    160 H69         23.6350   -12.4950   -12.3120 hc        14 MOL       0.055200
    161 H70         22.6600   -13.9600   -11.9600 hc        14 MOL       0.055200
    162 H71         23.8670   -14.2480    -9.7950 h1        14 MOL       0.027700
    163 H72         24.8480   -12.7830   -10.1470 h1        14 MOL       0.027700
    164 H73         25.8070   -15.5520    -9.7700 h1        14 MOL       0.039700
    165 H74         26.8030   -14.0980   -10.1250 h1        14 MOL       0.039700
    166 H75         27.5550   -15.1250   -12.2190 h1        14 MOL       0.042367
    167 H76         26.5490   -16.5800   -11.8580 h1        14 MOL       0.042367
    168 H77         29.4600   -16.4120   -11.9970 h1        14 MOL       0.042367
    169 H78         28.4370   -17.8520   -11.6310 h1        14 MOL       0.042367
    170 H79         29.3420   -17.9370    -9.4060 h1        14 MOL       0.042700
    171 H80         30.3740   -16.4970    -9.7710 h1        14 MOL       0.042700
    172 H81         31.2540   -19.2980    -9.3450 h1        14 MOL       0.042700
    173 H82         32.2960   -17.8660    -9.7170 h1        14 MOL       0.042700
    174 H83         32.7560   -18.7710   -11.9030 h1        14 MOL       0.042200
    175 H84         31.7190   -20.1990   -11.5340 h1        14 MOL       0.042200
    176 H85         34.6010   -20.1280   -12.0310 h1        14 MOL       0.033700
    177 H86         33.5800   -21.5720   -11.6580 h1        14 MOL       0.033700
    178 H87         34.7460   -21.8260    -9.5150 h1        14 MOL       0.059200
    179 H88         35.7500   -20.3860    -9.8920 h1        14 MOL       0.059200
    180 H89         35.5920   -22.8120   -11.4300 ho        14 MOL       0.398000
    181 H90         11.0300    -1.0550    -6.3490 hc        14 MOL       0.044700
    182 H91         10.0430    -2.4400    -5.7530 hc        14 MOL       0.044700
    183 H92          8.8270    -0.8860    -4.2200 hc        14 MOL       0.043700
    184 H93          9.8110     0.4800    -4.8330 hc        14 MOL       0.043700
    185 H94         11.8600    -0.5750    -3.9280 hc        14 MOL       0.040700
    186 H95         10.8800    -1.9440    -3.2950 hc        14 MOL       0.040700
    187 H96          9.4730    -0.3250    -2.0080 hc        14 MOL       0.040867
    188 H97         10.4520     1.0310    -2.6520 hc        14 MOL       0.040867
    189 H98         12.4600     0.1490    -1.4870 hc        14 MOL       0.039867
    190 H99         11.4830    -1.2110    -0.8280 hc        14 MOL       0.039867
    191 H100         9.9170     0.4340     0.2140 hc        14 MOL       0.040533
    192 H101        10.8920     1.7820    -0.4520 hc        14 MOL       0.040533
    193 H102        12.8420     1.0540     0.9050 hc        14 MOL       0.039700
    194 H103        11.8660    -0.2970     1.5830 hc        14 MOL       0.039700
    195 H104        10.1870     1.3530     2.4320 hc        14 MOL       0.041867
    196 H105        11.1610     2.6950     1.7490 hc        14 MOL       0.041867
    197 H106        13.0470     2.1040     3.2610 hc        14 MOL       0.040033
    198 H107        12.0730     0.7610     3.9530 hc        14 MOL       0.040033
    199 H108        10.3090     2.3960     4.6310 hc        14 MOL       0.055200
    200 H109        11.2830     3.7340     3.9360 hc        14 MOL       0.055200
    201 H110        13.1160     3.2470     5.5550 h1        14 MOL       0.027700
    202 H111        12.1420     1.9090     6.2570 h1        14 MOL       0.027700
    203 H112        13.0690     4.3770     7.6210 h1        14 MOL       0.039700
    204 H113        12.0970     3.0430     8.3330 h1        14 MOL       0.039700
    205 H114        10.2620     4.6060     8.7620 h1        14 MOL       0.042367
    206 H115        11.2400     5.9440     8.0440 h1        14 MOL       0.042367
    207 H116        10.3880     5.6300    10.8270 h1        14 MOL       0.042367
    208 H117        11.3660     6.9630    10.1050 h1        14 MOL       0.042367
    209 H118        13.2580     6.2950    11.4260 h1        14 MOL       0.042700
    210 H119        12.2790     4.9590    12.1510 h1        14 MOL       0.042700
    211 H120        13.2790     7.3990    13.4910 h1        14 MOL       0.042700
    212 H121        12.2970     6.0650    14.2160 h1        14 MOL       0.042700
    213 H122        10.4170     7.5560    14.4160 h1        14 MOL       0.042200
    214 H123        11.3930     8.8910    13.6970 h1        14 MOL       0.042200
    215 H124        10.3020     8.6900    16.4120 h1        14 MOL       0.033700
    216 H125        11.2820    10.0410    15.7190 h1        14 MOL       0.033700
    217 H126        13.1180     9.4750    17.2460 h1        14 MOL       0.059200
    218 H127        12.1370     8.1300    17.9220 h1        14 MOL       0.059200
    219 H128        11.4420    10.9220    17.9210 ho        14 MOL       0.398000
@<TRIPOS>BOND
     1     1    10 1   
     2     1    13 1   
     3     1    94 1   
     4     2    11 1   
     5     2    12 1   
     6     2    95 1   
     7     3    14 1   
     8     3    15 1   
     9     3   100 1   
    10     4     5 ar  
    11     4     9 ar  
    12     4    15 1   
    13     5     6 ar  
    14     5    91 1   
    15     6     7 ar  
    16     6    11 1   
    17     7     8 ar  
    18     7    92 1   
    19     8     9 ar  
    20     8    10 1   
    21     9    93 1   
    22    10    73 2   
    23    11    74 2   
    24    12    54 1   
    25    12    96 1   
    26    12    97 1   
    27    13    35 1   
    28    13    98 1   
    29    13    99 1   
    30    14    16 1   
    31    14   101 1   
    32    14   102 1   
    33    15    75 2   
    34    16    17 1   
    35    16   103 1   
    36    16   104 1   
    37    17    18 1   
    38    17   105 1   
    39    17   106 1   
    40    18    19 1   
    41    18   107 1   
    42    18   108 1   
    43    19    20 1   
    44    19   109 1   
    45    19   110 1   
    46    20    21 1   
    47    20   111 1   
    48    20   112 1   
    49    21    22 1   
    50    21   113 1   
    51    21   114 1   
    52    22    23 1   
    53    22   115 1   
    54    22   116 1   
    55    23    24 1   
    56    23   117 1   
    57    23   118 1   
    58    24    25 1   
    59    24   119 1   
    60    24   120 1   
    61    25    26 1   
    62    25   121 1   
    63    25   122 1   
    64    26    76 1   
    65    26   123 1   
    66    26   124 1   
    67    27    28 1   
    68    27    76 1   
    69    27   125 1   
    70    27   126 1   
    71    28    77 1   
    72    28   127 1   
    73    28   128 1   
    74    29    30 1   
    75    29    77 1   
    76    29   129 1   
    77    29   130 1   
    78    30    78 1   
    79    30   131 1   
    80    30   132 1   
    81    31    32 1   
    82    31    78 1   
    83    31   133 1   
    84    31   134 1   
    85    32    79 1   
    86    32   135 1   
    87    32   136 1   
    88    33    34 1   
    89    33    79 1   
    90    33   137 1   
    91    33   138 1   
    92    34    80 1   
    93    34   139 1   
    94    34   140 1   
    95    35    36 1   
    96    35   142 1   
    97    35   143 1   
    98    36    37 1   
    99    36   144 1   
   100    36   145 1   
   101    37    38 1   
   102    37   146 1   
   103    37   147 1   
   104    38    39 1   
   105    38   148 1   
   106    38   149 1   
   107    39    40 1   
   108    39   150 1   
   109    39   151 1   
   110    40    41 1   
   111    40   152 1   
   112    40   153 1   
   113    41    42 1   
   114    41   154 1   
   115    41   155 1   
   116    42    43 1   
   117    42   156 1   
   118    42   157 1   
   119    43    44 1   
   120    43   158 1   
   121    43   159 1   
   122    44    45 1   
   123    44   160 1   
   124    44   161 1   
   125    45    81 1   
   126    45   162 1   
   127    45   163 1   
   128    46    47 1   
   129    46    81 1   
   130    46   164 1   
   131    46   165 1   
   132    47    82 1   
   133    47   166 1   
   134    47   167 1   
   135    48    49 1   
   136    48    82 1   
   137    48   168 1   
   138    48   169 1   
   139    49    83 1   
   140    49   170 1   
   141    49   171 1   
   142    50    51 1   
   143    50    83 1   
   144    50   172 1   
   145    50   173 1   
   146    51    84 1   
   147    51   174 1   
   148    51   175 1   
   149    52    53 1   
   150    52    84 1   
   151    52   176 1   
   152    52   177 1   
   153    53    85 1   
   154    53   178 1   
   155    53   179 1   
   156    54    55 1   
   157    54   181 1   
   158    54   182 1   
   159    55    56 1   
   160    55   183 1   
   161    55   184 1   
   162    56    57 1   
   163    56   185 1   
   164    56   186 1   
   165    57    58 1   
   166    57   187 1   
   167    57   188 1   
   168    58    59 1   
   169    58   189 1   
   170    58   190 1   
   171    59    60 1   
   172    59   191 1   
   173    59   192 1   
   174    60    61 1   
   175    60   193 1   
   176    60   194 1   
   177    61    62 1   
   178    61   195 1   
   179    61   196 1   
   180    62    63 1   
   181    62   197 1   
   182    62   198 1   
   183    63    64 1   
   184    63   199 1   
   185    63   200 1   
   186    64    86 1   
   187    64   201 1   
   188    64   202 1   
   189    65    66 1   
   190    65    86 1   
   191    65   203 1   
   192    65   204 1   
   193    66    87 1   
   194    66   205 1   
   195    66   206 1   
   196    67    68 1   
   197    67    87 1   
   198    67   207 1   
   199    67   208 1   
   200    68    88 1   
   201    68   209 1   
   202    68   210 1   
   203    69    70 1   
   204    69    88 1   
   205    69   211 1   
   206    69   212 1   
   207    70    89 1   
   208    70   213 1   
   209    70   214 1   
   210    71    72 1   
   211    71    89 1   
   212    71   215 1   
   213    71   216 1   
   214    72    90 1   
   215    72   217 1   
   216    72   218 1   
   217    80   141 1   
   218    85   180 1   
   219    90   219 1   
@<TRIPOS>SUBSTRUCTURE
     1 MOL         1 TEMP              0 ****  ****    0 ROOT
