@<TRIPOS>MOLECULE
MOL
  219   219     1     0     0
SMALL
bcc


@<TRIPOS>ATOM
      1 N           -8.1740     4.4620     3.0500 n          2 MOL      -0.556900
      2 N1         -10.2230    -1.4030     1.2230 n          2 MOL      -0.556900
      3 N2          -4.0350    -0.2970     1.9960 n          2 MOL      -0.556900
      4 C           -6.1300     0.7250     2.6330 ca         2 MOL      -0.156267
      5 C1          -6.9000    -0.4070     2.3210 ca         2 MOL      -0.036000
      6 C2          -8.2940    -0.3340     2.2250 ca         2 MOL      -0.156267
      7 C3          -8.9240     0.8960     2.4630 ca         2 MOL      -0.036000
      8 C4          -8.1880     2.0430     2.7910 ca         2 MOL      -0.156267
      9 C5          -6.7890     1.9370     2.8790 ca         2 MOL      -0.036000
     10 C6          -8.9120     3.3460     3.0560 c          2 MOL       0.668700
     11 C7          -9.0910    -1.5770     1.9140 c          2 MOL       0.668700
     12 C8         -11.1720    -2.4560     0.8690 c3         2 MOL       0.083000
     13 C9          -8.6830     5.8030     3.3150 c3         2 MOL       0.083000
     14 C10         -2.6150    -0.6240     2.0090 c3         2 MOL       0.083000
     15 C11         -4.6250     0.6480     2.7360 c          2 MOL       0.668700
     16 C12         -2.3990    -2.0190     1.4210 c3         2 MOL      -0.106400
     17 C13         -0.8980    -2.3220     1.4250 c3         2 MOL      -0.077400
     18 C14         -0.6650    -3.7070     0.8180 c3         2 MOL      -0.079400
     19 C15          0.8390    -4.0110     0.7990 c3         2 MOL      -0.079400
     20 C16          1.0580    -5.3900     0.1740 c3         2 MOL      -0.079400
     21 C17          2.5570    -5.7040     0.1330 c3         2 MOL      -0.079400
     22 C18          2.7490    -7.0810    -0.5090 c3         2 MOL      -0.079400
     23 C19          4.2440    -7.4230    -0.5750 c3         2 MOL      -0.078400
     24 C20          4.4040    -8.7980    -1.2290 c3         2 MOL      -0.078400
     25 C21          5.8910    -9.1590    -1.3130 c3         2 MOL      -0.084400
     26 C22          6.0230   -10.5360    -1.9760 c3         2 MOL       0.133400
     27 C23          7.5010   -12.1380    -2.6750 c3         2 MOL       0.128400
     28 C24          8.9240   -12.5100    -2.7760 c3         2 MOL       0.130400
     29 C25         10.0420   -14.2690    -3.5770 c3         2 MOL       0.130400
     30 C26          9.6930   -15.4960    -4.2000 c3         2 MOL       0.129400
     31 C27         10.7550   -17.2440    -4.9960 c3         2 MOL       0.130400
     32 C28         12.1170   -17.6530    -5.1170 c3         2 MOL       0.128400
     33 C29         13.2710   -19.3930    -5.8740 c3         2 MOL       0.094400
     34 C30         12.9780   -20.7000    -6.4960 c3         2 MOL       0.125400
     35 C31        -12.6190    -2.0200     1.0850 c3         2 MOL      -0.106400
     36 C32        -13.4960    -3.2040     0.6660 c3         2 MOL      -0.077400
     37 C33        -14.9780    -2.8810     0.8430 c3         2 MOL      -0.079400
     38 C34        -15.7750    -4.1160     0.4030 c3         2 MOL      -0.079400
     39 C35        -17.2770    -3.8710     0.5540 c3         2 MOL      -0.079400
     40 C36        -18.0120    -5.1380     0.1030 c3         2 MOL      -0.079400
     41 C37        -19.5230    -4.9400     0.2380 c3         2 MOL      -0.079400
     42 C38        -20.2290    -6.2250    -0.2190 c3         2 MOL      -0.078400
     43 C39        -21.7450    -6.0550    -0.0940 c3         2 MOL      -0.078400
     44 C40        -22.4300    -7.3490    -0.5540 c3         2 MOL      -0.084400
     45 C41        -23.9510    -7.1900    -0.4330 c3         2 MOL       0.133400
     46 C42         -7.6090     6.7700     3.8130 c3         2 MOL      -0.106400
     47 C43         -8.3080     8.1130     4.0410 c3         2 MOL      -0.077400
     48 C44         -7.3340     9.1620     4.5790 c3         2 MOL      -0.079400
     49 C45         -8.1330    10.4520     4.8100 c3         2 MOL      -0.079400
     50 C46         -7.2410    11.5570     5.3840 c3         2 MOL      -0.079400
     51 C47         -8.1220    12.7920     5.6140 c3         2 MOL      -0.079400
     52 C48         -7.2980    13.9350     6.2150 c3         2 MOL      -0.079400
     53 C49         -8.2390    15.1290     6.4450 c3         2 MOL      -0.078400
     54 C50         -7.4750    16.3050     7.0690 c3         2 MOL      -0.078400
     55 C51         -8.4660    17.4590     7.2920 c3         2 MOL      -0.084400
     56 C52         -7.7480    18.6590     7.9320 c3         2 MOL       0.133400
     57 C53         -8.0870    20.8010     8.7320 c3         2 MOL       0.128400
     58 C54         -9.1130    21.8430     8.9320 c3         2 MOL       0.130400
     59 C55         -9.2290    23.8860     9.7840 c3         2 MOL       0.130400
     60 C56         -8.3620    24.8310    10.3990 c3         2 MOL       0.129400
     61 C57         -8.5900    26.8560    11.2410 c3         2 MOL       0.130400
     62 C58         -9.6730    27.7750    11.4010 c3         2 MOL       0.128400
     63 C59        -10.0460    29.7950    12.2390 c3         2 MOL       0.094400
     64 C60         -9.2730    30.8530    12.9200 c3         2 MOL       0.125400
     65 C61        -25.9600    -8.2530    -0.7520 c3         2 MOL       0.128400
     66 C62        -26.6000    -9.5040    -1.1970 c3         2 MOL       0.130400
     67 C63        -28.6990   -10.2300    -1.3860 c3         2 MOL       0.130400
     68 C64        -29.9890    -9.6930    -1.1340 c3         2 MOL       0.129400
     69 C65        -32.0660   -10.3750    -1.3110 c3         2 MOL       0.130400
     70 C66        -32.7270   -11.5680    -1.7340 c3         2 MOL       0.128400
     71 C67        -34.8030   -12.3230    -1.9640 c3         2 MOL       0.094400
     72 C68        -36.1710   -11.8100    -1.7510 c3         2 MOL       0.125400
     73 O          -10.1270     3.3660     3.2680 o          2 MOL      -0.607100
     74 O1          -8.7020    -2.6820     2.2930 o          2 MOL      -0.607100
     75 O2          -3.9880     1.4200     3.4540 o          2 MOL      -0.607100
     76 O3           7.4050   -10.9000    -2.0720 os         2 MOL      -0.427600
     77 O4           8.8540   -13.7360    -3.3830 os         2 MOL      -0.430600
     78 O5          10.8760   -16.0560    -4.4070 os         2 MOL      -0.430600
     79 O6          12.0250   -18.8350    -5.6950 os         2 MOL      -0.425600
     80 O7          14.1770   -21.3610    -6.7130 oh         2 MOL      -0.592800
     81 O8          -8.7010    19.7120     8.1380 os         2 MOL      -0.427600
     82 O9          -8.4240    22.8710     9.5280 os         2 MOL      -0.430600
     83 O10         -9.1990    25.8330    10.6470 os         2 MOL      -0.430600
     84 O11         -9.1130    28.8110    11.9950 os         2 MOL      -0.425600
     85 O12        -10.1320    31.8990    13.2220 oh         2 MOL      -0.592800
     86 O13        -24.5930    -8.3980    -0.8620 os         2 MOL      -0.427600
     87 O14        -27.9300    -9.2210    -1.0370 os         2 MOL      -0.430600
     88 O15        -30.7860   -10.6950    -1.4800 os         2 MOL      -0.430600
     89 O16        -34.0020   -11.2720    -1.5790 os         2 MOL      -0.425600
     90 O17        -37.0730   -12.7950    -2.1210 oh         2 MOL      -0.592800
     91 H253        -6.4180    -1.3640     2.1620 ha         2 MOL       0.162000
     92 H254       -10.0040     0.9620     2.4090 ha         2 MOL       0.162000
     93 H255        -6.1930     2.8010     3.1450 ha         2 MOL       0.162000
     94 H250        -7.2060     4.3840     2.7800 hn         2 MOL       0.309500
     95 H251       -10.3870    -0.4890     0.8140 hn         2 MOL       0.309500
     96 H252        -4.6100    -0.7890     1.3320 hn         2 MOL       0.309500
     97 H4          -2.2470    -0.5740     3.0130 h1         2 MOL       0.064700
     98 H5          -2.0840     0.0750     1.3970 h1         2 MOL       0.064700
     99 H6          -2.7730    -2.0430     0.3880 hc         2 MOL       0.046700
    100 H7          -2.9340    -2.7670     2.0260 hc         2 MOL       0.046700
    101 H8          -0.5190    -2.2970     2.4560 hc         2 MOL       0.042700
    102 H9          -0.3740    -1.5660     0.8230 hc         2 MOL       0.042700
    103 H10         -1.0510    -3.7210    -0.2110 hc         2 MOL       0.041200
    104 H11         -1.1890    -4.4650     1.4170 hc         2 MOL       0.041200
    105 H12          1.2340    -4.0020     1.8260 hc         2 MOL       0.040700
    106 H13          1.3600    -3.2510     0.1990 hc         2 MOL       0.040700
    107 H14          0.6590    -5.3920    -0.8510 hc         2 MOL       0.040200
    108 H15          0.5380    -6.1530     0.7710 hc         2 MOL       0.040200
    109 H16          2.9640    -5.7090     1.1540 hc         2 MOL       0.040200
    110 H17          3.0760    -4.9430    -0.4670 hc         2 MOL       0.040200
    111 H18          2.3330    -7.0670    -1.5270 hc         2 MOL       0.039700
    112 H19          2.2250    -7.8400     0.0900 hc         2 MOL       0.039700
    113 H20          4.6670    -7.4440     0.4390 hc         2 MOL       0.041700
    114 H21          4.7690    -6.6670    -1.1770 hc         2 MOL       0.041700
    115 H22          3.9780    -8.7720    -2.2410 hc         2 MOL       0.040367
    116 H23          3.8770    -9.5520    -0.6280 hc         2 MOL       0.040367
    117 H24          6.3220    -9.1890    -0.3020 hc         2 MOL       0.054700
    118 H25          6.4190    -8.4050    -1.9160 hc         2 MOL       0.054700
    119 H26          5.5830   -10.4970    -2.9840 h1         2 MOL       0.027700
    120 H27          5.4870   -11.2840    -1.3710 h1         2 MOL       0.027700
    121 H28          7.0660   -12.1010    -3.6830 h1         2 MOL       0.039700
    122 H29          6.9730   -12.8920    -2.0730 h1         2 MOL       0.039700
    123 H30          9.3830   -12.5850    -1.7770 h1         2 MOL       0.042200
    124 H31          9.4750   -11.7880    -3.3990 h1         2 MOL       0.042200
    125 H32         10.5660   -14.4510    -2.6290 h1         2 MOL       0.042200
    126 H33         10.6580   -13.6560    -4.2480 h1         2 MOL       0.042200
    127 H34          9.1630   -15.3080    -5.1460 h1         2 MOL       0.042700
    128 H35          9.0710   -16.1030    -3.5260 h1         2 MOL       0.042700
    129 H36         10.2860   -17.1580    -5.9870 h1         2 MOL       0.042700
    130 H37         10.1950   -17.9510    -4.3660 h1         2 MOL       0.042700
    131 H38         12.5780   -17.7310    -4.1220 h1         2 MOL       0.042200
    132 H39         12.6750   -16.9430    -5.7420 h1         2 MOL       0.042200
    133 H40         13.7780   -19.5350    -4.9060 h1         2 MOL       0.033700
    134 H41         13.8890   -18.7710    -6.5400 h1         2 MOL       0.033700
    135 H42         12.4540   -20.5430    -7.4490 h1         2 MOL       0.059200
    136 H43         12.3440   -21.2870    -5.8170 h1         2 MOL       0.059200
    137 H44        -10.9620    -3.3150     1.4710 h1         2 MOL       0.064700
    138 H45        -11.0480    -2.6480    -0.1760 h1         2 MOL       0.064700
    139 H46        -12.8480    -1.1420     0.4650 hc         2 MOL       0.046700
    140 H48        -12.7880    -1.7810     2.1460 hc         2 MOL       0.046700
    141 H49        -13.2410    -4.0750     1.2850 hc         2 MOL       0.042700
    142 H50        -13.3000    -3.4390    -0.3890 hc         2 MOL       0.042700
    143 H51        -15.2490    -2.0170     0.2200 hc         2 MOL       0.041200
    144 H52        -15.1880    -2.6560     1.8980 hc         2 MOL       0.041200
    145 H53        -15.4850    -4.9740     1.0270 hc         2 MOL       0.040700
    146 H54        -15.5480    -4.3380    -0.6490 hc         2 MOL       0.040700
    147 H55        -17.5800    -3.0210    -0.0740 hc         2 MOL       0.040200
    148 H56        -17.5150    -3.6570     1.6060 hc         2 MOL       0.040200
    149 H57        -17.6980    -5.9840     0.7310 hc         2 MOL       0.040200
    150 H58        -17.7640    -5.3490    -0.9470 hc         2 MOL       0.040200
    151 H59        -19.8420    -4.0970    -0.3920 hc         2 MOL       0.039700
    152 H60        -19.7740    -4.7320     1.2880 hc         2 MOL       0.039700
    153 H61        -19.9030    -7.0660     0.4100 hc         2 MOL       0.041700
    154 H62        -19.9710    -6.4320    -1.2680 hc         2 MOL       0.041700
    155 H63        -22.0760    -5.2190    -0.7250 hc         2 MOL       0.040367
    156 H64        -22.0080    -5.8520     0.9540 hc         2 MOL       0.040367
    157 H65        -22.0950    -8.1850     0.0780 hc         2 MOL       0.054700
    158 H66        -22.1630    -7.5510    -1.6020 hc         2 MOL       0.054700
    159 H67         -9.4070     5.6870     4.0940 h1         2 MOL       0.064700
    160 H68         -8.9710     6.1040     2.3290 h1         2 MOL       0.064700
    161 H47         -6.8080     6.8760     3.0670 hc         2 MOL       0.046700
    162 H128        -7.1880     6.4040     4.7610 hc         2 MOL       0.046700
    163 H71         -9.1130     7.9700     4.7760 hc         2 MOL       0.042700
    164 H72         -8.7400     8.4650     3.0930 hc         2 MOL       0.042700
    165 H73         -6.5260     9.3350     3.8550 hc         2 MOL       0.041200
    166 H74         -6.9100     8.8140     5.5310 hc         2 MOL       0.041200
    167 H75         -8.9420    10.2440     5.5250 hc         2 MOL       0.040700
    168 H76         -8.5670    10.7900     3.8580 hc         2 MOL       0.040700
    169 H77         -6.4310    11.7940     4.6800 hc         2 MOL       0.040200
    170 H78         -6.8140    11.2260     6.3410 hc         2 MOL       0.040200
    171 H79         -8.9300    12.5290     6.3110 hc         2 MOL       0.040200
    172 H80         -8.5550    13.1160     4.6570 hc         2 MOL       0.040200
    173 H81         -6.4890    14.2170     5.5260 hc         2 MOL       0.039700
    174 H82         -6.8700    13.6120     7.1750 hc         2 MOL       0.039700
    175 H83         -9.0460    14.8250     7.1270 hc         2 MOL       0.041700
    176 H84         -8.6720    15.4440     5.4850 hc         2 MOL       0.041700
    177 H85         -6.6700    16.6280     6.3940 hc         2 MOL       0.040367
    178 H86         -7.0480    15.9960     8.0330 hc         2 MOL       0.040367
    179 H87         -9.2700    17.1190     7.9610 hc         2 MOL       0.054700
    180 H88         -8.8970    17.7610     6.3260 hc         2 MOL       0.054700
    181 H89         -6.9440    19.0090     7.2680 h1         2 MOL       0.027700
    182 H90         -7.3210    18.3560     8.9000 h1         2 MOL       0.027700
    183 H91         -7.2900    21.1920     8.0850 h1         2 MOL       0.039700
    184 H92         -7.6670    20.5150     9.7070 h1         2 MOL       0.039700
    185 H93         -9.9130    21.4720     9.5940 h1         2 MOL       0.042200
    186 H94         -9.5370    22.1600     7.9660 h1         2 MOL       0.042200
    187 H95        -10.0290    23.5960    10.4800 h1         2 MOL       0.042200
    188 H96         -9.6570    24.3020     8.8620 h1         2 MOL       0.042200
    189 H97         -7.5620    25.1320     9.7060 h1         2 MOL       0.042700
    190 H98         -7.9370    24.4200    11.3260 h1         2 MOL       0.042700
    191 H99         -7.8030    27.2860    10.6030 h1         2 MOL       0.042700
    192 H100        -8.1780    26.5690    12.2210 h1         2 MOL       0.042700
    193 H101       -10.4540    27.3290    12.0320 h1         2 MOL       0.042200
    194 H102       -10.0860    28.0510    10.4210 h1         2 MOL       0.042200
    195 H103       -10.8450    29.4200    12.8990 h1         2 MOL       0.033700
    196 H104       -10.4770    30.1700    11.2970 h1         2 MOL       0.033700
    197 H105        -8.4680    31.2020    12.2590 h1         2 MOL       0.059200
    198 H106        -8.8410    30.4440    13.8440 h1         2 MOL       0.059200
    199 H107       -10.5120    32.2800    12.3900 ho         2 MOL       0.398000
    200 H108        14.7460   -20.8420    -7.3370 ho         2 MOL       0.398000
    201 H109       -24.2830    -6.3520    -1.0640 h1         2 MOL       0.027700
    202 H110       -24.2150    -6.9860     0.6160 h1         2 MOL       0.027700
    203 H111       -26.3050    -7.4250    -1.3870 h1         2 MOL       0.039700
    204 H112       -26.2370    -8.0580     0.2930 h1         2 MOL       0.039700
    205 H113       -26.2940   -10.3500    -0.5600 h1         2 MOL       0.042200
    206 H114       -26.3620    -9.7130    -2.2520 h1         2 MOL       0.042200
    207 H115       -28.5190   -11.1140    -0.7600 h1         2 MOL       0.042200
    208 H116       -28.5860   -10.4790    -2.4500 h1         2 MOL       0.042200
    209 H117       -30.1620    -8.8050    -1.7590 h1         2 MOL       0.042700
    210 H118       -30.0960    -9.4400    -0.0690 h1         2 MOL       0.042700
    211 H119       -32.3590    -9.5270    -1.9480 h1         2 MOL       0.042700
    212 H120       -32.2930   -10.1600    -0.2560 h1         2 MOL       0.042700
    213 H121       -32.4910   -11.7770    -2.7860 h1         2 MOL       0.042200
    214 H122       -32.4310   -12.4140    -1.0990 h1         2 MOL       0.042200
    215 H123       -34.6160   -13.2100    -1.3390 h1         2 MOL       0.033700
    216 H124       -34.6450   -12.5650    -3.0270 h1         2 MOL       0.033700
    217 H125       -36.3190   -10.9140    -2.3700 h1         2 MOL       0.059200
    218 H126       -36.3050   -11.5520    -0.6910 h1         2 MOL       0.059200
    219 H127       -36.9530   -13.5990    -1.5550 ho         2 MOL       0.398000
@<TRIPOS>BOND
     1     1    10 1   
     2     1    13 1   
     3     1    94 1   
     4     2    11 1   
     5     2    12 1   
     6     2    95 1   
     7     3    14 1   
     8     3    15 1   
     9     3    96 1   
    10     4     5 ar  
    11     4     9 ar  
    12     4    15 1   
    13     5     6 ar  
    14     5    91 1   
    15     6     7 ar  
    16     6    11 1   
    17     7     8 ar  
    18     7    92 1   
    19     8     9 ar  
    20     8    10 1   
    21     9    93 1   
    22    10    73 2   
    23    11    74 2   
    24    12    35 1   
    25    12   137 1   
    26    12   138 1   
    27    13    46 1   
    28    13   159 1   
    29    13   160 1   
    30    14    16 1   
    31    14    97 1   
    32    14    98 1   
    33    15    75 2   
    34    16    17 1   
    35    16    99 1   
    36    16   100 1   
    37    17    18 1   
    38    17   101 1   
    39    17   102 1   
    40    18    19 1   
    41    18   103 1   
    42    18   104 1   
    43    19    20 1   
    44    19   105 1   
    45    19   106 1   
    46    20    21 1   
    47    20   107 1   
    48    20   108 1   
    49    21    22 1   
    50    21   109 1   
    51    21   110 1   
    52    22    23 1   
    53    22   111 1   
    54    22   112 1   
    55    23    24 1   
    56    23   113 1   
    57    23   114 1   
    58    24    25 1   
    59    24   115 1   
    60    24   116 1   
    61    25    26 1   
    62    25   117 1   
    63    25   118 1   
    64    26    76 1   
    65    26   119 1   
    66    26   120 1   
    67    27    28 1   
    68    27    76 1   
    69    27   121 1   
    70    27   122 1   
    71    28    77 1   
    72    28   123 1   
    73    28   124 1   
    74    29    30 1   
    75    29    77 1   
    76    29   125 1   
    77    29   126 1   
    78    30    78 1   
    79    30   127 1   
    80    30   128 1   
    81    31    32 1   
    82    31    78 1   
    83    31   129 1   
    84    31   130 1   
    85    32    79 1   
    86    32   131 1   
    87    32   132 1   
    88    33    34 1   
    89    33    79 1   
    90    33   133 1   
    91    33   134 1   
    92    34    80 1   
    93    34   135 1   
    94    34   136 1   
    95    35    36 1   
    96    35   139 1   
    97    35   140 1   
    98    36    37 1   
    99    36   141 1   
   100    36   142 1   
   101    37    38 1   
   102    37   143 1   
   103    37   144 1   
   104    38    39 1   
   105    38   145 1   
   106    38   146 1   
   107    39    40 1   
   108    39   147 1   
   109    39   148 1   
   110    40    41 1   
   111    40   149 1   
   112    40   150 1   
   113    41    42 1   
   114    41   151 1   
   115    41   152 1   
   116    42    43 1   
   117    42   153 1   
   118    42   154 1   
   119    43    44 1   
   120    43   155 1   
   121    43   156 1   
   122    44    45 1   
   123    44   157 1   
   124    44   158 1   
   125    45    86 1   
   126    45   201 1   
   127    45   202 1   
   128    46    47 1   
   129    46   161 1   
   130    46   162 1   
   131    47    48 1   
   132    47   163 1   
   133    47   164 1   
   134    48    49 1   
   135    48   165 1   
   136    48   166 1   
   137    49    50 1   
   138    49   167 1   
   139    49   168 1   
   140    50    51 1   
   141    50   169 1   
   142    50   170 1   
   143    51    52 1   
   144    51   171 1   
   145    51   172 1   
   146    52    53 1   
   147    52   173 1   
   148    52   174 1   
   149    53    54 1   
   150    53   175 1   
   151    53   176 1   
   152    54    55 1   
   153    54   177 1   
   154    54   178 1   
   155    55    56 1   
   156    55   179 1   
   157    55   180 1   
   158    56    81 1   
   159    56   181 1   
   160    56   182 1   
   161    57    58 1   
   162    57    81 1   
   163    57   183 1   
   164    57   184 1   
   165    58    82 1   
   166    58   185 1   
   167    58   186 1   
   168    59    60 1   
   169    59    82 1   
   170    59   187 1   
   171    59   188 1   
   172    60    83 1   
   173    60   189 1   
   174    60   190 1   
   175    61    62 1   
   176    61    83 1   
   177    61   191 1   
   178    61   192 1   
   179    62    84 1   
   180    62   193 1   
   181    62   194 1   
   182    63    64 1   
   183    63    84 1   
   184    63   195 1   
   185    63   196 1   
   186    64    85 1   
   187    64   197 1   
   188    64   198 1   
   189    65    66 1   
   190    65    86 1   
   191    65   203 1   
   192    65   204 1   
   193    66    87 1   
   194    66   205 1   
   195    66   206 1   
   196    67    68 1   
   197    67    87 1   
   198    67   207 1   
   199    67   208 1   
   200    68    88 1   
   201    68   209 1   
   202    68   210 1   
   203    69    70 1   
   204    69    88 1   
   205    69   211 1   
   206    69   212 1   
   207    70    89 1   
   208    70   213 1   
   209    70   214 1   
   210    71    72 1   
   211    71    89 1   
   212    71   215 1   
   213    71   216 1   
   214    72    90 1   
   215    72   217 1   
   216    72   218 1   
   217    80   200 1   
   218    85   199 1   
   219    90   219 1   
@<TRIPOS>SUBSTRUCTURE
     1 MOL         1 TEMP              0 ****  ****    0 ROOT
