@<TRIPOS>MOLECULE
MOL
  378   381     1     0     0
SMALL
bcc


@<TRIPOS>ATOM
      1 N           -8.1740     4.4620     3.0500 n          2 MOL      -0.556900
      2 N1         -10.2230    -1.4030     1.2230 n          2 MOL      -0.556900
      3 N2          -4.0350    -0.2970     1.9960 n          2 MOL      -0.556900
      4 C           -6.1300     0.7250     2.6330 ca         2 MOL      -0.155933
      5 C1          -6.9000    -0.4070     2.3210 ca         2 MOL      -0.036667
      6 C2          -8.2940    -0.3340     2.2250 ca         2 MOL      -0.155933
      7 C3          -8.9240     0.8960     2.4630 ca         2 MOL      -0.036667
      8 C4          -8.1880     2.0430     2.7910 ca         2 MOL      -0.155933
      9 C5          -6.7890     1.9370     2.8790 ca         2 MOL      -0.036667
     10 C6          -8.9120     3.3460     3.0560 c          2 MOL       0.668700
     11 C7          -9.0910    -1.5770     1.9140 c          2 MOL       0.668700
     12 C8         -11.0460    -2.5290     0.9080 c3         2 MOL       0.083000
     13 C9          -8.7940     5.7140     3.3100 c3         2 MOL       0.083000
     14 C10         -2.6250    -0.4800     2.0290 c3         2 MOL       0.083000
     15 C11         -4.6250     0.6480     2.7360 c          2 MOL       0.668700
     16 C12         -2.2970    -1.8460     1.4260 c3         2 MOL      -0.106067
     17 C13         -0.7880    -2.0770     1.4360 c3         2 MOL      -0.077067
     18 C14         -0.5260    -3.4560     0.8270 c3         2 MOL      -0.079400
     19 C15          0.9740    -3.7520     0.8000 c3         2 MOL      -0.079400
     20 C16          1.1660    -5.1370     0.1840 c3         2 MOL      -0.079400
     21 C17          2.6520    -5.4810     0.1240 c3         2 MOL      -0.079400
     22 C18          2.7910    -6.8690    -0.4970 c3         2 MOL      -0.079400
     23 C19          4.2680    -7.2520    -0.5870 c3         2 MOL      -0.078400
     24 C20          4.3720    -8.6430    -1.2120 c3         2 MOL      -0.078400
     25 C21          5.8420    -9.0420    -1.3220 c3         2 MOL      -0.084400
     26 C22          5.9250   -10.4350    -1.9500 c3         2 MOL       0.133400
     27 C23          7.3620   -12.0790    -2.6280 c3         2 MOL       0.128400
     28 C24          8.7780   -12.4530    -2.7580 c3         2 MOL       0.130400
     29 C25          9.8870   -14.2130    -3.5250 c3         2 MOL       0.130400
     30 C26          9.5500   -15.4760    -4.0770 c3         2 MOL       0.129400
     31 C27         10.6110   -17.2610    -4.8250 c3         2 MOL       0.130400
     32 C28         12.0130   -17.6680    -5.0060 c3         2 MOL       0.128400
     33 C29         13.4000   -19.3570    -5.7330 c3         2 MOL       0.105400
     34 C30         13.4850   -20.8010    -6.3170 c3         2 MOL       0.084333
     35 C31        -12.5280    -2.1530     1.0000 c3         2 MOL      -0.106067
     36 C32        -13.3590    -3.3910     0.6450 c3         2 MOL      -0.077067
     37 C33        -14.8520    -3.0590     0.7310 c3         2 MOL      -0.079400
     38 C34        -15.6580    -4.3130     0.3700 c3         2 MOL      -0.079400
     39 C35        -17.1570    -4.0090     0.4550 c3         2 MOL      -0.079400
     40 C36        -17.9350    -5.2770     0.0880 c3         2 MOL      -0.079400
     41 C37        -19.4390    -5.0000     0.1720 c3         2 MOL      -0.079400
     42 C38        -20.2000    -6.2810    -0.2020 c3         2 MOL      -0.078400
     43 C39        -21.7110    -6.0330    -0.1200 c3         2 MOL      -0.078400
     44 C40        -22.4450    -7.3260    -0.5000 c3         2 MOL      -0.084400
     45 C41        -23.9630    -7.1020    -0.4210 c3         2 MOL       0.133400
     46 C42         -7.7780     6.7320     3.8180 c3         2 MOL      -0.106067
     47 C43         -8.5230     8.0360     4.0770 c3         2 MOL      -0.077067
     48 C44         -7.5590     9.0930     4.6010 c3         2 MOL      -0.079400
     49 C45         -8.3580    10.3680     4.8570 c3         2 MOL      -0.079400
     50 C46         -7.4440    11.4600     5.4000 c3         2 MOL      -0.079400
     51 C47         -8.3000    12.6960     5.6500 c3         2 MOL      -0.079400
     52 C48         -7.4400    13.8200     6.2110 c3         2 MOL      -0.079400
     53 C49         -8.3500    15.0210     6.4560 c3         2 MOL      -0.078400
     54 C50         -7.5460    16.1780     7.0360 c3         2 MOL      -0.078400
     55 C51         -8.5040    17.3410     7.2740 c3         2 MOL      -0.084400
     56 C52         -7.7420    18.5210     7.8720 c3         2 MOL       0.133400
     57 C53         -7.9650    20.6620     8.6720 c3         2 MOL       0.128400
     58 C54         -8.9580    21.7910     8.9300 c3         2 MOL       0.130400
     59 C55         -9.1920    23.9050     9.7720 c3         2 MOL       0.130400
     60 C56         -8.4450    25.0630    10.4340 c3         2 MOL       0.129400
     61 C57         -8.6210    27.1590    11.3260 c3         2 MOL       0.130400
     62 C58         -9.5670    28.3270    11.6380 c3         2 MOL       0.128400
     63 C59         -9.7020    30.4430    12.5460 c3         2 MOL       0.105400
     64 C60         -8.9120    31.5700    13.2290 c3         2 MOL       0.084333
     65 C61        -26.0040    -8.1300    -0.7030 c3         2 MOL       0.128400
     66 C62        -26.6610    -9.3940    -1.0880 c3         2 MOL       0.130400
     67 C63        -28.7490   -10.1330    -1.2950 c3         2 MOL       0.130400
     68 C64        -30.0650    -9.6010    -1.0970 c3         2 MOL       0.129400
     69 C65        -32.1960   -10.1970    -1.2550 c3         2 MOL       0.130400
     70 C66        -33.0120   -11.3790    -1.6510 c3         2 MOL       0.128400
     71 C67        -35.1810   -12.2070    -1.9250 c3         2 MOL       0.105400
     72 C68        -36.7380   -11.9410    -1.8160 c3         2 MOL       0.084333
     73 O          -10.1270     3.3660     3.2680 o          2 MOL      -0.606767
     74 O1          -8.7020    -2.6820     2.2930 o          2 MOL      -0.606767
     75 O2          -3.9880     1.4200     3.4540 o          2 MOL      -0.606767
     76 O3           7.2960   -10.8240    -2.0690 os         2 MOL      -0.428600
     77 O4           8.6990   -13.6980    -3.3130 os         2 MOL      -0.430600
     78 O5          10.7310   -16.0090    -4.3000 os         2 MOL      -0.430600
     79 O6          12.0260   -18.9380    -5.5320 os         2 MOL      -0.425600
     80 O8          -8.6550    19.5820     8.0950 os         2 MOL      -0.428600
     81 O9          -8.2700    22.8690     9.5210 os         2 MOL      -0.430600
     82 O10         -9.3480    26.1160    10.7020 os         2 MOL      -0.430600
     83 O11         -8.8290    29.3610    12.2640 os         2 MOL      -0.425600
     84 O13        -24.6370    -8.3160    -0.7810 os         2 MOL      -0.428600
     85 O14        -27.9930    -9.0960    -0.9720 os         2 MOL      -0.430600
     86 O15        -30.8800   -10.6010    -1.4130 os         2 MOL      -0.430600
     87 O16        -34.3690   -11.0570    -1.5230 os         2 MOL      -0.425600
     88 H253        -6.4180    -1.3640     2.1620 ha         2 MOL       0.162000
     89 H254       -10.0040     0.9620     2.4090 ha         2 MOL       0.162000
     90 H255        -6.1930     2.8010     3.1450 ha         2 MOL       0.162000
     91 H250        -7.2060     4.3840     2.7800 hn         2 MOL       0.309500
     92 H251       -10.3870    -0.4890     0.8140 hn         2 MOL       0.309500
     93 H252        -4.6100    -0.7890     1.3320 hn         2 MOL       0.309500
     94 H4          -2.2690    -0.4090     3.0670 h1         2 MOL       0.064533
     95 H5          -2.1440     0.3120     1.4370 h1         2 MOL       0.064533
     96 H6          -2.6630    -1.8860     0.3900 hc         2 MOL       0.046700
     97 H7          -2.7890    -2.6320     2.0180 hc         2 MOL       0.046700
     98 H8          -0.4130    -2.0460     2.4690 hc         2 MOL       0.042867
     99 H9          -0.2900    -1.3010     0.8380 hc         2 MOL       0.042867
    100 H10         -0.9170    -3.4790    -0.2000 hc         2 MOL       0.041200
    101 H11         -1.0360    -4.2210     1.4300 hc         2 MOL       0.041200
    102 H12          1.3780    -3.7400     1.8230 hc         2 MOL       0.040700
    103 H13          1.4920    -2.9990     0.1890 hc         2 MOL       0.040700
    104 H14          0.7500    -5.1430    -0.8330 hc         2 MOL       0.040200
    105 H15          0.6420    -5.8840     0.7980 hc         2 MOL       0.040200
    106 H16          3.0760    -5.4820     1.1390 hc         2 MOL       0.040200
    107 H17          3.1780    -4.7410    -0.4960 hc         2 MOL       0.040200
    108 H18          2.3540    -6.8610    -1.5060 hc         2 MOL       0.039700
    109 H19          2.2580    -7.6020     0.1260 hc         2 MOL       0.039700
    110 H20          4.7120    -7.2660     0.4180 hc         2 MOL       0.041700
    111 H21          4.8010    -6.5250    -1.2150 hc         2 MOL       0.041700
    112 H22          3.9220    -8.6270    -2.2150 hc         2 MOL       0.040700
    113 H23          3.8390    -9.3690    -0.5830 hc         2 MOL       0.040700
    114 H24          6.2970    -9.0580    -0.3200 hc         2 MOL       0.054867
    115 H25          6.3730    -8.3170    -1.9560 hc         2 MOL       0.054867
    116 H26          5.4610   -10.4140    -2.9480 h1         2 MOL       0.027700
    117 H27          5.3900   -11.1550    -1.3120 h1         2 MOL       0.027700
    118 H28          6.8970   -12.0760    -3.6240 h1         2 MOL       0.039700
    119 H29          6.8510   -12.8090    -1.9840 h1         2 MOL       0.039700
    120 H30          9.2670   -12.4880    -1.7720 h1         2 MOL       0.042200
    121 H31          9.3070   -11.7530    -3.4240 h1         2 MOL       0.042200
    122 H32         10.4480   -14.3370    -2.5880 h1         2 MOL       0.042033
    123 H33         10.4640   -13.6150    -4.2450 h1         2 MOL       0.042033
    124 H34          8.9830   -15.3510    -5.0100 h1         2 MOL       0.042700
    125 H35          8.9720   -16.0680    -3.3530 h1         2 MOL       0.042700
    126 H36         10.0830   -17.2360    -5.7920 h1         2 MOL       0.043033
    127 H37         10.0940   -17.9350    -4.1240 h1         2 MOL       0.043033
    128 H38         12.5230   -17.6560    -4.0330 h1         2 MOL       0.042033
    129 H39         12.5070   -16.9660    -5.6920 h1         2 MOL       0.042033
    130 H40         13.9240   -19.3300    -4.7660 h1         2 MOL       0.033200
    131 H41         13.8880   -18.6580    -6.4300 h1         2 MOL       0.033200
    132 H44        -10.8140    -3.3530     1.5990 h1         2 MOL       0.064533
    133 H45        -10.8320    -2.8490    -0.1210 h1         2 MOL       0.064533
    134 H46        -12.7530    -1.3420     0.2930 hc         2 MOL       0.046700
    135 H48        -12.7660    -1.8280     2.0230 hc         2 MOL       0.046700
    136 H49        -13.1250    -4.2010     1.3500 hc         2 MOL       0.042867
    137 H50        -13.1130    -3.7130    -0.3770 hc         2 MOL       0.042867
    138 H51        -15.0920    -2.2490     0.0280 hc         2 MOL       0.041200
    139 H52        -15.1000    -2.7430     1.7550 hc         2 MOL       0.041200
    140 H53        -15.4110    -5.1220     1.0720 hc         2 MOL       0.040700
    141 H54        -15.4070    -4.6270    -0.6540 hc         2 MOL       0.040700
    142 H55        -17.4120    -3.2030    -0.2460 hc         2 MOL       0.040200
    143 H56        -17.4130    -3.7020     1.4790 hc         2 MOL       0.040200
    144 H57        -17.6730    -6.0830     0.7880 hc         2 MOL       0.040200
    145 H58        -17.6750    -5.5820    -0.9360 hc         2 MOL       0.040200
    146 H59        -19.7050    -4.1940    -0.5270 hc         2 MOL       0.039700
    147 H60        -19.7000    -4.6990     1.1970 hc         2 MOL       0.039700
    148 H61        -19.9260    -7.0860     0.4960 hc         2 MOL       0.041700
    149 H62        -19.9340    -6.5780    -1.2260 hc         2 MOL       0.041700
    150 H63        -21.9920    -5.2300    -0.8170 hc         2 MOL       0.040700
    151 H64        -21.9820    -5.7420     0.9050 hc         2 MOL       0.040700
    152 H65        -22.1560    -8.1270     0.1950 hc         2 MOL       0.054867
    153 H66        -22.1680    -7.6140    -1.5250 hc         2 MOL       0.054867
    154 H67         -9.5960     5.5680     4.0490 h1         2 MOL       0.064533
    155 H68         -9.2420     6.0890     2.3790 h1         2 MOL       0.064533
    156 H42         -6.9930     6.8910     3.0640 hc         2 MOL       0.046700
    157 H43         -7.3250     6.3720     4.7530 hc         2 MOL       0.046700
    158 H71         -9.3090     7.8600     4.8250 hc         2 MOL       0.042867
    159 H72         -8.9810     8.3870     3.1410 hc         2 MOL       0.042867
    160 H73         -6.7720     9.2840     3.8580 hc         2 MOL       0.041200
    161 H74         -7.1040     8.7470     5.5400 hc         2 MOL       0.041200
    162 H75         -9.1460    10.1580     5.5940 hc         2 MOL       0.040700
    163 H76         -8.8170    10.7080     3.9180 hc         2 MOL       0.040700
    164 H77         -6.6550    11.6900     4.6690 hc         2 MOL       0.040200
    165 H78         -6.9890    11.1280     6.3440 hc         2 MOL       0.040200
    166 H79         -9.0890    12.4480     6.3740 hc         2 MOL       0.040200
    167 H80         -8.7600    13.0210     4.7060 hc         2 MOL       0.040200
    168 H81         -6.6510    14.0840     5.4920 hc         2 MOL       0.039700
    169 H82         -6.9850    13.4990     7.1590 hc         2 MOL       0.039700
    170 H83         -9.1390    14.7390     7.1680 hc         2 MOL       0.041700
    171 H84         -8.8090    15.3340     5.5070 hc         2 MOL       0.041700
    172 H85         -6.7580    16.4790     6.3310 hc         2 MOL       0.040700
    173 H86         -7.0920    15.8720     7.9890 hc         2 MOL       0.040700
    174 H87         -9.2910    17.0240     7.9730 hc         2 MOL       0.054867
    175 H88         -8.9610    17.6410     6.3190 hc         2 MOL       0.054867
    176 H89         -6.9530    18.8480     7.1770 h1         2 MOL       0.027700
    177 H90         -7.2890    18.2180     8.8280 h1         2 MOL       0.027700
    178 H91         -7.1750    21.0070     7.9880 h1         2 MOL       0.039700
    179 H92         -7.5150    20.3430     9.6250 h1         2 MOL       0.039700
    180 H93         -9.7470    21.4400     9.6130 h1         2 MOL       0.042200
    181 H94         -9.4110    22.1140     7.9800 h1         2 MOL       0.042200
    182 H95         -9.9830    23.5390    10.4460 h1         2 MOL       0.042033
    183 H96         -9.6410    24.2390     8.8240 h1         2 MOL       0.042033
    184 H97         -7.6510    25.4240     9.7620 h1         2 MOL       0.042700
    185 H98         -7.9970    24.7180    11.3790 h1         2 MOL       0.042700
    186 H99         -7.8210    27.5010    10.6520 h1         2 MOL       0.043033
    187 H100        -8.1770    26.7840    12.2620 h1         2 MOL       0.043033
    188 H101       -10.3680    27.9860    12.3130 h1         2 MOL       0.042033
    189 H102       -10.0100    28.7040    10.7030 h1         2 MOL       0.042033
    190 H103       -10.5060    30.0970    13.2140 h1         2 MOL       0.033200
    191 H104       -10.1380    30.8120    11.6050 h1         2 MOL       0.033200
    192 H109       -24.2530    -6.2990    -1.1160 h1         2 MOL       0.027700
    193 H110       -24.2370    -6.8170     0.6050 h1         2 MOL       0.027700
    194 H111       -26.3190    -7.3330    -1.3910 h1         2 MOL       0.039700
    195 H112       -26.2930    -7.8680     0.3240 h1         2 MOL       0.039700
    196 H113       -26.3790   -10.2070    -0.4010 h1         2 MOL       0.042200
    197 H114       -26.4060    -9.6650    -2.1250 h1         2 MOL       0.042200
    198 H115       -28.5670   -10.9870    -0.6260 h1         2 MOL       0.042033
    199 H116       -28.5980   -10.4260    -2.3450 h1         2 MOL       0.042033
    200 H117       -30.2280    -8.7390    -1.7600 h1         2 MOL       0.042700
    201 H118       -30.1980    -9.3010    -0.0480 h1         2 MOL       0.042700
    202 H119       -32.4170    -9.3420    -1.9130 h1         2 MOL       0.043033
    203 H120       -32.3920    -9.9260    -0.2050 h1         2 MOL       0.043033
    204 H121       -32.7860   -11.6400    -2.6940 h1         2 MOL       0.042033
    205 H122       -32.7640   -12.2280    -0.9970 h1         2 MOL       0.042033
    206 H123       -34.9220   -13.0610    -1.2800 h1         2 MOL       0.033200
    207 H124       -34.9370   -12.4570    -2.9690 h1         2 MOL       0.033200
    208 N3          14.9240   -21.1550    -6.4930 n          2 MOL      -0.571233
    209 H127        12.9750   -20.8350    -7.2930 h1         2 MOL       0.076700
    210 H128        13.0080   -21.5150    -5.6270 h1         2 MOL       0.076700
    211 C69         15.3110   -22.2510    -7.1760 c          2 MOL       0.656767
    212 H129        15.6350   -20.6380    -5.9600 hn         2 MOL       0.307167
    213 O17         14.4920   -22.9730    -7.7620 o          2 MOL      -0.600767
    214 C70         16.7830   -22.6220    -7.2390 c3         2 MOL      -0.160067
    215 C71         16.9470   -24.0590    -7.7640 c3         2 MOL       0.140067
    216 H130        17.2380   -22.4930    -6.2440 hc         2 MOL       0.078700
    217 H131        17.2910   -21.9210    -7.9210 hc         2 MOL       0.078700
    218 O18         18.3480   -24.4060    -7.8540 os         2 MOL      -0.435933
    219 H132        16.4900   -24.1270    -8.7630 h1         2 MOL       0.045033
    220 H133        16.4350   -24.7520    -7.0820 h1         2 MOL       0.045033
    221 C72         18.4470   -25.6860    -8.3330 c3         2 MOL       0.118400
    222 C73         19.8700   -26.0340    -8.4730 c3         2 MOL       0.129733
    223 H134        17.9670   -25.7540    -9.3200 h1         2 MOL       0.043533
    224 H135        17.9650   -26.3900    -7.6400 h1         2 MOL       0.043533
    225 O19         19.7760   -27.2940    -8.9590 os         2 MOL      -0.431600
    226 H136        20.3910   -26.0120    -7.5020 h1         2 MOL       0.047700
    227 H137        20.3660   -25.3640    -9.1930 h1         2 MOL       0.047700
    228 C74         20.9500   -27.8280    -9.2400 c3         2 MOL       0.117067
    229 C75         20.5380   -29.1040    -9.7420 c3         2 MOL       0.125733
    230 H138        21.5750   -27.9360    -8.3440 h1         2 MOL       0.045867
    231 H139        21.4770   -27.2550   -10.0160 h1         2 MOL       0.045867
    232 O20         21.6650   -29.6620   -10.0680 os         2 MOL      -0.425933
    233 H140        20.0200   -29.6690    -8.9590 h1         2 MOL       0.049867
    234 H141        19.8850   -28.9730   -10.6200 h1         2 MOL       0.049867
    235 C76         21.5430   -30.9230   -10.5840 c3         2 MOL       0.130067
    236 C77         22.9490   -31.1000   -10.7430 c3         2 MOL       0.114400
    237 H142        21.1190   -31.6250    -9.8490 h1         2 MOL       0.050867
    238 H143        21.0050   -30.9590   -11.5360 h1         2 MOL       0.050867
    239 O21         23.3520   -32.3420   -11.1620 os         2 MOL      -0.425267
    240 H144        23.3270   -30.3320   -11.4340 h1         2 MOL       0.047867
    241 H145        23.3790   -30.9210    -9.7500 h1         2 MOL       0.047867
    242 C78         24.7030   -32.1250   -11.0520 c3         2 MOL       0.110733
    243 C79         25.6060   -33.3120   -11.0770 c3         2 MOL       0.200133
    244 H146        24.8470   -31.6820   -10.0780 h1         2 MOL       0.042533
    245 H147        25.0220   -31.3960   -11.8200 h1         2 MOL       0.042533
    246 N4          26.8380   -32.6380   -10.7600 nh         2 MOL      -0.743267
    247 H148        25.3200   -34.0210   -10.2910 h1         2 MOL       0.078033
    248 H149        25.6060   -33.7810   -12.0770 h1         2 MOL       0.078033
    249 H150        27.1220   -31.9140   -11.4320 hn         2 MOL       0.450467
    250 N5          -9.7760    32.6660    13.5160 n          2 MOL      -0.571233
    251 H151        -8.0970    31.9190    12.5770 h1         2 MOL       0.076700
    252 H144        -8.4680    31.2080    14.1680 h1         2 MOL       0.076700
    253 C80         -9.2690    33.7780    14.0360 c          2 MOL       0.656767
    254 H145       -10.7490    32.6020    13.3260 hn         2 MOL       0.307167
    255 O22         -8.0570    33.8480    14.2650 o          2 MOL      -0.600767
    256 C81        -10.1600    34.9570    14.3420 c3         2 MOL      -0.160067
    257 C82         -9.3220    36.1400    14.8600 c3         2 MOL       0.140067
    258 H146       -10.9090    34.6520    15.0900 hc         2 MOL       0.078700
    259 H147       -10.7150    35.2300    13.4310 hc         2 MOL       0.078700
    260 O23        -10.1830    37.2610    15.1480 os         2 MOL      -0.435933
    261 H148        -8.7940    35.8330    15.7740 h1         2 MOL       0.045033
    262 H149        -8.5880    36.4240    14.0930 h1         2 MOL       0.045033
    263 C83         -9.4180    38.3280    15.6210 c3         2 MOL       0.118400
    264 C84        -10.3390    39.4560    15.8890 c3         2 MOL       0.129733
    265 H150        -8.9040    38.0430    16.5500 h1         2 MOL       0.043533
    266 H151        -8.6800    38.6290    14.8650 h1         2 MOL       0.043533
    267 O24         -9.5450    40.4890    16.3550 os         2 MOL      -0.431600
    268 H152       -10.8510    39.7540    14.9600 h1         2 MOL       0.047700
    269 H153       -11.0820    39.1680    16.6500 h1         2 MOL       0.047700
    270 C85        -10.3180    41.5420    16.6010 c3         2 MOL       0.117067
    271 C86         -9.4440    42.5700    17.0840 c3         2 MOL       0.125733
    272 H154       -10.8160    41.8800    15.6820 h1         2 MOL       0.045867
    273 H155       -11.0680    41.3030    17.3680 h1         2 MOL       0.045867
    274 O25        -10.3290    43.5460    17.2820 os         2 MOL      -0.425933
    275 H156        -8.9540    42.2660    18.0220 h1         2 MOL       0.049867
    276 H157        -8.6960    42.8460    16.3250 h1         2 MOL       0.049867
    277 C87         -9.7850    44.6700    17.7560 c3         2 MOL       0.130067
    278 C88        -10.9390    45.5180    17.8530 c3         2 MOL       0.114400
    279 H158        -9.3310    44.5160    18.7460 h1         2 MOL       0.050867
    280 H159        -9.0510    45.0970    17.0570 h1         2 MOL       0.050867
    281 O26        -10.4230    46.5950    18.3070 os         2 MOL      -0.425267
    282 H160       -11.3870    45.6750    16.8700 h1         2 MOL       0.047867
    283 H161       -11.6670    45.1010    18.5530 h1         2 MOL       0.047867
    284 C89        -11.2970    47.6040    18.5040 c3         2 MOL       0.110733
    285 C90        -10.2980    48.5580    19.0190 c3         2 MOL       0.200133
    286 H162       -11.7710    47.9400    17.5560 h1         2 MOL       0.042533
    287 H163       -12.0690    47.3450    19.2590 h1         2 MOL       0.042533
    288 N6         -10.8190    49.7710    19.3570 nh         2 MOL      -0.743267
    289 H164        -9.8150    48.1210    19.9050 h1         2 MOL       0.078033
    290 H165        -9.5210    48.7040    18.2530 h1         2 MOL       0.078033
    291 H166       -11.7820    49.9110    19.1800 hn         2 MOL       0.450467
    292 N7         -37.4550   -13.1490    -2.2470 n          2 MOL      -0.571233
    293 H167       -37.0320   -11.0950    -2.4590 h1         2 MOL       0.076700
    294 H168       -37.0180   -11.7000    -0.7780 h1         2 MOL       0.076700
    295 C91        -38.8080   -13.2400    -2.2840 c          2 MOL       0.656767
    296 H169       -36.9240   -13.9390    -2.5280 hn         2 MOL       0.307167
    297 O27        -39.5450   -12.2990    -1.9500 o          2 MOL      -0.600767
    298 C92        -39.4500   -14.5420    -2.7530 c3         2 MOL      -0.160067
    299 C93        -41.0090   -14.4570    -2.7370 c3         2 MOL       0.140067
    300 H170       -39.0830   -14.7680    -3.7660 hc         2 MOL       0.078700
    301 H171       -39.0990   -15.3590    -2.1030 hc         2 MOL       0.078700
    302 O28        -41.5860   -15.7040    -3.1840 os         2 MOL      -0.435933
    303 H172       -41.3480   -14.2470    -1.7120 h1         2 MOL       0.045033
    304 H173       -41.3370   -13.6450    -3.4020 h1         2 MOL       0.045033
    305 C94        -43.0090   -15.5980    -3.1400 c3         2 MOL       0.118400
    306 C95        -43.6370   -16.9380    -3.5930 c3         2 MOL       0.129733
    307 H174       -43.3230   -15.3770    -2.1080 h1         2 MOL       0.043533
    308 H175       -43.3390   -14.7860    -3.8070 h1         2 MOL       0.043533
    309 O29        -45.0600   -16.8570    -3.5340 os         2 MOL      -0.431600
    310 H176       -43.3250   -17.1670    -4.6240 h1         2 MOL       0.047700
    311 H177       -43.2970   -17.7420    -2.9210 h1         2 MOL       0.047700
    312 C96        -45.5950   -18.1230    -3.9150 c3         2 MOL       0.117067
    313 C97        -47.1410   -18.0980    -3.7980 c3         2 MOL       0.125733
    314 H178       -45.2970   -18.3530    -4.9510 h1         2 MOL       0.045867
    315 H179       -45.1950   -18.8950    -3.2400 h1         2 MOL       0.045867
    316 O30        -47.6770   -19.3780    -4.1410 os         2 MOL      -0.425933
    317 H180       -47.4160   -17.8670    -2.7580 h1         2 MOL       0.049867
    318 H181       -47.5600   -17.3300    -4.4670 h1         2 MOL       0.049867
    319 C98        -49.0900   -19.3370    -3.9380 c3         2 MOL       0.130067
    320 C99        -49.7070   -20.6980    -4.2080 c3         2 MOL       0.114400
    321 H182       -49.2880   -19.0590    -2.8920 h1         2 MOL       0.050867
    322 H183       -49.5470   -18.5910    -4.6100 h1         2 MOL       0.050867
    323 O31        -51.0860   -20.5540    -3.9370 os         2 MOL      -0.425267
    324 H184       -49.5330   -20.9820    -5.2590 h1         2 MOL       0.047867
    325 H185       -49.2840   -21.4570    -3.5460 h1         2 MOL       0.047867
    326 C100       -51.7950   -21.7470    -4.1990 c3         2 MOL       0.110733
    327 C101       -53.2760   -21.5160    -3.8340 c3         2 MOL       0.200133
    328 H186       -51.7020   -22.0110    -5.2650 h1         2 MOL       0.042533
    329 H187       -51.3830   -22.5570    -3.5790 h1         2 MOL       0.042533
    330 N8         -54.0270   -22.7490    -4.0450 nh         2 MOL      -0.743267
    331 H188       -53.3180   -21.2540    -2.7690 h1         2 MOL       0.078033
    332 H189       -53.6930   -20.6960    -4.4240 h1         2 MOL       0.078033
    333 H190       -53.7560   -23.5070    -3.4720 hn         2 MOL       0.450467
    334 C102       -55.2110   -22.9010    -4.8210 ca         2 MOL       0.302600
    335 C103       -56.0090   -24.0110    -4.3760 ca         2 MOL      -0.238000
    336 H191       -55.6890   -24.6030    -3.5800 ha         2 MOL       0.157333
    337 C104       -57.1420   -24.2820    -4.9680 ca         2 MOL       0.008000
    338 H192       -57.7370   -25.0960    -4.6490 ha         2 MOL       0.178333
    339 C105       -57.5660   -23.4710    -6.0370 ca         2 MOL      -0.253533
    340 C106       -56.8850   -22.4670    -6.4750 ca         2 MOL       0.037000
    341 H193       -57.2520   -21.8920    -7.2930 ha         2 MOL       0.200667
    342 C107       -55.6630   -22.1620    -5.8790 ca         2 MOL      -0.278533
    343 N9         -58.6260   -23.7490    -6.5640 no         2 MOL       0.326867
    344 O32        -59.2330   -24.7790    -6.1120 o          2 MOL      -0.207500
    345 O33        -59.1030   -23.1200    -7.4310 o          2 MOL      -0.207500
    346 N10        -55.0540   -21.1570    -6.4960 no         2 MOL       0.322867
    347 O34        -55.6900   -20.4540    -7.3840 o          2 MOL      -0.207667
    348 O35        -53.9040   -20.9970    -6.3800 o          2 MOL      -0.207667
    349 C108        27.2260   -32.4940    -9.4080 ca         2 MOL       0.302600
    350 C109        27.5980   -33.6390    -8.6460 ca         2 MOL      -0.238000
    351 H194        27.5960   -34.5890    -9.0750 ha         2 MOL       0.157333
    352 C110        27.9610   -33.4620    -7.3930 ca         2 MOL       0.008000
    353 H195        28.2580   -34.2760    -6.7930 ha         2 MOL       0.178333
    354 C111        27.9340   -32.1340    -6.8380 ca         2 MOL      -0.253533
    355 C112        27.5530   -31.1030    -7.5100 ca         2 MOL       0.037000
    356 H196        27.5420   -30.1340    -7.0620 ha         2 MOL       0.200667
    357 C113        27.2080   -31.2870    -8.8130 ca         2 MOL      -0.278533
    358 N11         28.2860   -31.9890    -5.6840 no         2 MOL       0.326867
    359 O36         28.2330   -30.8400    -5.0300 o          2 MOL      -0.207500
    360 O37         28.6680   -32.9310    -5.1560 o          2 MOL      -0.207500
    361 N12         26.8360   -30.2610    -9.4660 no         2 MOL       0.322867
    362 O38         25.6820   -29.6340    -9.1150 o          2 MOL      -0.207667
    363 O39         27.2170   -30.1910   -10.5700 o          2 MOL      -0.207667
    364 C114       -10.0820    50.8280    19.9440 ca         2 MOL       0.302600
    365 C115        -8.5650    50.9110    20.3370 ca         2 MOL      -0.278533
    366 C116        -8.1250    52.0140    20.8730 ca         2 MOL       0.037000
    367 H197        -7.1030    52.1120    21.1550 ha         2 MOL       0.200667
    368 C117        -8.9800    53.0450    21.0730 ca         2 MOL      -0.253533
    369 C118       -10.2620    53.0250    20.7590 ca         2 MOL       0.008000
    370 H198       -10.8680    53.8790    20.9490 ha         2 MOL       0.178333
    371 C119       -10.8260    51.8870    20.1800 ca         2 MOL      -0.238000
    372 H199       -11.8390    51.8750    19.9340 ha         2 MOL       0.157333
    373 N13         -8.5380    54.0660    21.5790 no         2 MOL       0.326867
    374 O40         -9.3600    55.0230    21.7580 o          2 MOL      -0.207500
    375 O41         -7.4180    54.1960    21.8970 o          2 MOL      -0.207500
    376 N14         -7.5890    49.9760    20.2030 no         2 MOL       0.322867
    377 O42         -6.3690    50.2350    20.5900 o          2 MOL      -0.207667
    378 O43         -7.8080    48.9330    19.7480 o          2 MOL      -0.207667
@<TRIPOS>BOND
     1     1    10 1   
     2     1    13 1   
     3     1    91 1   
     4     2    11 1   
     5     2    12 1   
     6     2    92 1   
     7     3    14 1   
     8     3    15 1   
     9     3    93 1   
    10     4     5 ar  
    11     4     9 ar  
    12     4    15 1   
    13     5     6 ar  
    14     5    88 1   
    15     6     7 ar  
    16     6    11 1   
    17     7     8 ar  
    18     7    89 1   
    19     8     9 ar  
    20     8    10 1   
    21     9    90 1   
    22    10    73 2   
    23    11    74 2   
    24    12    35 1   
    25    12   132 1   
    26    12   133 1   
    27    13    46 1   
    28    13   154 1   
    29    13   155 1   
    30    14    16 1   
    31    14    94 1   
    32    14    95 1   
    33    15    75 2   
    34    16    17 1   
    35    16    96 1   
    36    16    97 1   
    37    17    18 1   
    38    17    98 1   
    39    17    99 1   
    40    18    19 1   
    41    18   100 1   
    42    18   101 1   
    43    19    20 1   
    44    19   102 1   
    45    19   103 1   
    46    20    21 1   
    47    20   104 1   
    48    20   105 1   
    49    21    22 1   
    50    21   106 1   
    51    21   107 1   
    52    22    23 1   
    53    22   108 1   
    54    22   109 1   
    55    23    24 1   
    56    23   110 1   
    57    23   111 1   
    58    24    25 1   
    59    24   112 1   
    60    24   113 1   
    61    25    26 1   
    62    25   114 1   
    63    25   115 1   
    64    26    76 1   
    65    26   116 1   
    66    26   117 1   
    67    27    28 1   
    68    27    76 1   
    69    27   118 1   
    70    27   119 1   
    71    28    77 1   
    72    28   120 1   
    73    28   121 1   
    74    29    30 1   
    75    29    77 1   
    76    29   122 1   
    77    29   123 1   
    78    30    78 1   
    79    30   124 1   
    80    30   125 1   
    81    31    32 1   
    82    31    78 1   
    83    31   126 1   
    84    31   127 1   
    85    32    79 1   
    86    32   128 1   
    87    32   129 1   
    88    33    34 1   
    89    33    79 1   
    90    33   130 1   
    91    33   131 1   
    92    34   208 1   
    93    34   209 1   
    94    34   210 1   
    95    35    36 1   
    96    35   134 1   
    97    35   135 1   
    98    36    37 1   
    99    36   136 1   
   100    36   137 1   
   101    37    38 1   
   102    37   138 1   
   103    37   139 1   
   104    38    39 1   
   105    38   140 1   
   106    38   141 1   
   107    39    40 1   
   108    39   142 1   
   109    39   143 1   
   110    40    41 1   
   111    40   144 1   
   112    40   145 1   
   113    41    42 1   
   114    41   146 1   
   115    41   147 1   
   116    42    43 1   
   117    42   148 1   
   118    42   149 1   
   119    43    44 1   
   120    43   150 1   
   121    43   151 1   
   122    44    45 1   
   123    44   152 1   
   124    44   153 1   
   125    45    84 1   
   126    45   192 1   
   127    45   193 1   
   128    46    47 1   
   129    46   156 1   
   130    46   157 1   
   131    47    48 1   
   132    47   158 1   
   133    47   159 1   
   134    48    49 1   
   135    48   160 1   
   136    48   161 1   
   137    49    50 1   
   138    49   162 1   
   139    49   163 1   
   140    50    51 1   
   141    50   164 1   
   142    50   165 1   
   143    51    52 1   
   144    51   166 1   
   145    51   167 1   
   146    52    53 1   
   147    52   168 1   
   148    52   169 1   
   149    53    54 1   
   150    53   170 1   
   151    53   171 1   
   152    54    55 1   
   153    54   172 1   
   154    54   173 1   
   155    55    56 1   
   156    55   174 1   
   157    55   175 1   
   158    56    80 1   
   159    56   176 1   
   160    56   177 1   
   161    57    58 1   
   162    57    80 1   
   163    57   178 1   
   164    57   179 1   
   165    58    81 1   
   166    58   180 1   
   167    58   181 1   
   168    59    60 1   
   169    59    81 1   
   170    59   182 1   
   171    59   183 1   
   172    60    82 1   
   173    60   184 1   
   174    60   185 1   
   175    61    62 1   
   176    61    82 1   
   177    61   186 1   
   178    61   187 1   
   179    62    83 1   
   180    62   188 1   
   181    62   189 1   
   182    63    64 1   
   183    63    83 1   
   184    63   190 1   
   185    63   191 1   
   186    64   250 1   
   187    64   251 1   
   188    64   252 1   
   189    65    66 1   
   190    65    84 1   
   191    65   194 1   
   192    65   195 1   
   193    66    85 1   
   194    66   196 1   
   195    66   197 1   
   196    67    68 1   
   197    67    85 1   
   198    67   198 1   
   199    67   199 1   
   200    68    86 1   
   201    68   200 1   
   202    68   201 1   
   203    69    70 1   
   204    69    86 1   
   205    69   202 1   
   206    69   203 1   
   207    70    87 1   
   208    70   204 1   
   209    70   205 1   
   210    71    72 1   
   211    71    87 1   
   212    71   206 1   
   213    71   207 1   
   214    72   292 1   
   215    72   293 1   
   216    72   294 1   
   217   208   211 1   
   218   208   212 1   
   219   211   213 2   
   220   211   214 1   
   221   214   215 1   
   222   214   216 1   
   223   214   217 1   
   224   215   218 1   
   225   215   219 1   
   226   215   220 1   
   227   218   221 1   
   228   221   222 1   
   229   221   223 1   
   230   221   224 1   
   231   222   225 1   
   232   222   226 1   
   233   222   227 1   
   234   225   228 1   
   235   228   229 1   
   236   228   230 1   
   237   228   231 1   
   238   229   232 1   
   239   229   233 1   
   240   229   234 1   
   241   232   235 1   
   242   235   236 1   
   243   235   237 1   
   244   235   238 1   
   245   236   239 1   
   246   236   240 1   
   247   236   241 1   
   248   239   242 1   
   249   242   243 1   
   250   242   244 1   
   251   242   245 1   
   252   243   246 1   
   253   243   247 1   
   254   243   248 1   
   255   246   249 1   
   256   246   349 1   
   257   250   253 1   
   258   250   254 1   
   259   253   255 2   
   260   253   256 1   
   261   256   257 1   
   262   256   258 1   
   263   256   259 1   
   264   257   260 1   
   265   257   261 1   
   266   257   262 1   
   267   260   263 1   
   268   263   264 1   
   269   263   265 1   
   270   263   266 1   
   271   264   267 1   
   272   264   268 1   
   273   264   269 1   
   274   267   270 1   
   275   270   271 1   
   276   270   272 1   
   277   270   273 1   
   278   271   274 1   
   279   271   275 1   
   280   271   276 1   
   281   274   277 1   
   282   277   278 1   
   283   277   279 1   
   284   277   280 1   
   285   278   281 1   
   286   278   282 1   
   287   278   283 1   
   288   281   284 1   
   289   284   285 1   
   290   284   286 1   
   291   284   287 1   
   292   285   288 1   
   293   285   289 1   
   294   285   290 1   
   295   288   291 1   
   296   288   364 1   
   297   292   295 1   
   298   292   296 1   
   299   295   297 2   
   300   295   298 1   
   301   298   299 1   
   302   298   300 1   
   303   298   301 1   
   304   299   302 1   
   305   299   303 1   
   306   299   304 1   
   307   302   305 1   
   308   305   306 1   
   309   305   307 1   
   310   305   308 1   
   311   306   309 1   
   312   306   310 1   
   313   306   311 1   
   314   309   312 1   
   315   312   313 1   
   316   312   314 1   
   317   312   315 1   
   318   313   316 1   
   319   313   317 1   
   320   313   318 1   
   321   316   319 1   
   322   319   320 1   
   323   319   321 1   
   324   319   322 1   
   325   320   323 1   
   326   320   324 1   
   327   320   325 1   
   328   323   326 1   
   329   326   327 1   
   330   326   328 1   
   331   326   329 1   
   332   327   330 1   
   333   327   331 1   
   334   327   332 1   
   335   330   333 1   
   336   330   334 1   
   337   334   335 ar  
   338   334   342 ar  
   339   335   336 1   
   340   335   337 ar  
   341   337   338 1   
   342   337   339 ar  
   343   339   340 ar  
   344   339   343 1   
   345   340   341 1   
   346   340   342 ar  
   347   342   346 1   
   348   343   344 1   
   349   343   345 1   
   350   346   347 1   
   351   346   348 1   
   352   349   350 ar  
   353   349   357 ar  
   354   350   351 1   
   355   350   352 ar  
   356   352   353 1   
   357   352   354 ar  
   358   354   355 ar  
   359   354   358 1   
   360   355   356 1   
   361   355   357 ar  
   362   357   361 1   
   363   358   359 1   
   364   358   360 1   
   365   361   362 1   
   366   361   363 1   
   367   364   365 ar  
   368   364   371 ar  
   369   365   366 ar  
   370   365   376 1   
   371   366   367 1   
   372   366   368 ar  
   373   368   369 ar  
   374   368   373 1   
   375   369   370 1   
   376   369   371 ar  
   377   371   372 1   
   378   373   374 1   
   379   373   375 1   
   380   376   377 1   
   381   376   378 1   
@<TRIPOS>SUBSTRUCTURE
     1 MOL         1 TEMP              0 ****  ****    0 ROOT
