@<TRIPOS>MOLECULE
MOL
  378   381     1     0     0
SMALL
bcc


@<TRIPOS>ATOM
      1 N          -10.5990     6.2900    -1.1540 n          3 MOL      -0.561567
      2 N1          -8.8440     0.2980    -1.8560 n          3 MOL      -0.561567
      3 N2          -4.4490     2.6950    -0.7140 n          3 MOL      -0.561567
      4 C           -6.6380     3.6490    -0.3330 ca         3 MOL      -0.155600
      5 C1          -7.3350     2.4600    -0.5980 ca         3 MOL      -0.038667
      6 C2          -8.7210     2.4630    -0.8050 ca         3 MOL      -0.155600
      7 C3          -9.4150     3.6780    -0.7350 ca         3 MOL      -0.038667
      8 C4          -8.7410     4.8860    -0.4890 ca         3 MOL      -0.155600
      9 C5          -7.3550     4.8510    -0.2790 ca         3 MOL      -0.038667
     10 C6          -9.4720     6.2070    -0.4370 c          3 MOL       0.667033
     11 C7          -9.4650     1.1800    -1.0680 c          3 MOL       0.667033
     12 C8          -9.3790    -1.0290    -2.1370 c3         3 MOL       0.082667
     13 C9         -11.3800     7.4880    -1.1580 c3         3 MOL       0.082667
     14 C10         -3.0260     2.6080    -0.5380 c3         3 MOL       0.082667
     15 C11         -5.1490     3.6470    -0.0880 c          3 MOL       0.667033
     16 C12         -2.5270     1.2610    -1.0610 c3         3 MOL      -0.106067
     17 C13         -1.0130     1.1520    -0.8850 c3         3 MOL      -0.077067
     18 C14         -0.5960    -0.2170    -1.4210 c3         3 MOL      -0.078733
     19 C15          0.9140    -0.4310    -1.2880 c3         3 MOL      -0.079400
     20 C16          1.2090    -1.8220    -1.8430 c3         3 MOL      -0.079067
     21 C17          2.6980    -2.1490    -1.7570 c3         3 MOL      -0.079400
     22 C18          2.8660    -3.5550    -2.3290 c3         3 MOL      -0.079400
     23 C19          4.3270    -4.0010    -2.2930 c3         3 MOL      -0.078400
     24 C20          4.3730    -5.4100    -2.8750 c3         3 MOL      -0.078400
     25 C21          5.7990    -5.9490    -2.8780 c3         3 MOL      -0.084067
     26 C22          5.7450    -7.3570    -3.4680 c3         3 MOL       0.133067
     27 C23          6.9350    -9.2060    -4.0280 c3         3 MOL       0.127733
     28 C24          8.2620    -9.8410    -4.0620 c3         3 MOL       0.129067
     29 C25          9.0030   -11.8450    -4.7030 c3         3 MOL       0.129067
     30 C26          8.4020   -13.0100    -5.2470 c3         3 MOL       0.129067
     31 C27          9.0480   -15.0290    -5.8530 c3         3 MOL       0.129067
     32 C28         10.3030   -15.7640    -5.8410 c3         3 MOL       0.128400
     33 C29         11.2270   -17.7840    -6.2770 c3         3 MOL       0.105400
     34 C30         10.9020   -19.1750    -6.7810 c3         3 MOL       0.085333
     35 C31        -12.8670     7.1040    -1.1480 c3         3 MOL      -0.106067
     36 C32        -13.7420     8.3630    -1.1440 c3         3 MOL      -0.077067
     37 C33        -15.2130     7.9250    -1.1220 c3         3 MOL      -0.078733
     38 C34        -16.1380     9.1490    -1.0990 c3         3 MOL      -0.079400
     39 C35        -17.5890     8.6560    -1.0630 c3         3 MOL      -0.079067
     40 C36        -18.5450     9.8510    -1.0190 c3         3 MOL      -0.079400
     41 C37        -19.9840     9.3230    -0.9690 c3         3 MOL      -0.079400
     42 C38        -20.9650    10.5010    -0.9030 c3         3 MOL      -0.078400
     43 C39        -22.3990     9.9600    -0.8400 c3         3 MOL      -0.078400
     44 C40        -23.3780    11.1370    -0.7530 c3         3 MOL      -0.084067
     45 C41        -24.8150    10.6000    -0.6770 c3         3 MOL       0.133067
     46 C42        -27.0260    11.2320    -0.4940 c3         3 MOL       0.127733
     47 C43        -27.9220    12.3970    -0.3640 c3         3 MOL       0.129067
     48 C44        -30.0900    12.7790    -0.1150 c3         3 MOL       0.129067
     49 C45        -31.3010    12.0310    -0.0250 c3         3 MOL       0.129067
     50 C46        -33.4610    12.4460     0.2750 c3         3 MOL       0.129067
     51 C47        -34.3110    13.6360     0.4970 c3         3 MOL       0.128400
     52 C48        -36.4740    14.3850     0.8860 c3         3 MOL       0.105400
     53 C49        -37.9930    14.0080     1.0690 c3         3 MOL       0.085333
     54 C50        -10.7950    -1.0320    -2.7410 c3         3 MOL      -0.106067
     55 C51        -11.1380    -2.5070    -2.9390 c3         3 MOL      -0.077067
     56 C52        -12.5290    -2.7120    -3.5300 c3         3 MOL      -0.078733
     57 C53        -12.6910    -4.2290    -3.6710 c3         3 MOL      -0.079400
     58 C54        -14.0470    -4.6300    -4.2520 c3         3 MOL      -0.079067
     59 C55        -14.0210    -6.1590    -4.3330 c3         3 MOL      -0.079400
     60 C56        -15.3190    -6.7370    -4.9000 c3         3 MOL      -0.079400
     61 C57        -15.1220    -8.2600    -4.9300 c3         3 MOL      -0.078400
     62 C58        -16.3470    -9.0000    -5.4810 c3         3 MOL      -0.078400
     63 C59        -15.9890   -10.4960    -5.4660 c3         3 MOL      -0.084067
     64 C60        -17.1350   -11.3710    -6.0010 c3         3 MOL       0.133067
     65 C61        -17.6480   -13.6150    -6.4250 c3         3 MOL       0.127733
     66 C62        -17.0400   -14.9620    -6.3650 c3         3 MOL       0.129067
     67 C63        -17.4740   -17.0620    -6.8470 c3         3 MOL       0.129067
     68 C64        -18.5050   -17.9120    -7.3470 c3         3 MOL       0.129067
     69 C65        -18.6450   -20.0890    -7.7760 c3         3 MOL       0.129067
     70 C66        -17.7150   -21.2050    -7.7010 c3         3 MOL       0.128400
     71 C67        -17.5260   -23.4220    -8.1230 c3         3 MOL       0.105400
     72 C68        -18.3290   -24.6040    -8.6170 c3         3 MOL       0.085333
     73 O           -9.0240     7.1590     0.2050 o          3 MOL      -0.591100
     74 O1         -10.5780     0.9770    -0.5780 o          3 MOL      -0.591100
     75 O2          -4.6210     4.4870     0.6430 o          3 MOL      -0.591100
     76 O3           7.0490    -7.9400    -3.5000 os         3 MOL      -0.427933
     77 O4           7.9570   -11.0620    -4.5940 os         3 MOL      -0.429933
     78 O5           9.4260   -13.8300    -5.3550 os         3 MOL      -0.430267
     79 O6          10.0430   -17.0110    -6.3160 os         3 MOL      -0.425600
     80 O8         -25.7250    11.7030    -0.5800 os         3 MOL      -0.427933
     81 O9         -29.1750    11.8390    -0.2740 os         3 MOL      -0.429933
     82 O10        -32.2040    12.9800     0.1530 os         3 MOL      -0.430267
     83 O11        -35.6240    13.2200     0.6440 os         3 MOL      -0.425600
     84 O13        -16.6820   -12.7310    -5.9560 os         3 MOL      -0.427933
     85 O14        -17.9950   -15.8410    -6.8370 os         3 MOL      -0.429933
     86 O15        -17.8730   -19.0800    -7.3340 os         3 MOL      -0.430267
     87 O16        -18.3830   -22.2990    -8.1340 os         3 MOL      -0.425600
     88 H253        -6.8030     1.5170    -0.6150 ha         3 MOL       0.161667
     89 H254       -10.4900     3.6720    -0.8710 ha         3 MOL       0.161667
     90 H255        -6.8240     5.7740    -0.0810 ha         3 MOL       0.161667
     91 H250       -10.8480     5.4950    -1.7220 hn         3 MOL       0.303500
     92 H251        -8.0170     0.6210    -2.3510 hn         3 MOL       0.303500
     93 H252        -4.9470     2.1130    -1.3700 hn         3 MOL       0.303500
     94 H6          -2.7850     2.7270     0.5290 h1         3 MOL       0.065533
     95 H7          -2.5470     3.4240    -1.0950 h1         3 MOL       0.065533
     96 H8          -2.7730     1.1690    -2.1280 hc         3 MOL       0.044700
     97 H9          -3.0130     0.4500    -0.5000 hc         3 MOL       0.044700
     98 H10         -0.7530     1.2330     0.1800 hc         3 MOL       0.043867
     99 H11         -0.5110     1.9500    -1.4500 hc         3 MOL       0.043867
    100 H12         -0.8770    -0.2890    -2.4810 hc         3 MOL       0.040700
    101 H13         -1.1200    -0.9980    -0.8520 hc         3 MOL       0.040700
    102 H14          1.2120    -0.3780    -0.2310 hc         3 MOL       0.041033
    103 H15          1.4580     0.3300    -1.8670 hc         3 MOL       0.041033
    104 H16          0.8910    -1.8650    -2.8940 hc         3 MOL       0.039867
    105 H17          0.6450    -2.5650    -1.2620 hc         3 MOL       0.039867
    106 H18          3.0290    -2.1250    -0.7090 hc         3 MOL       0.040367
    107 H19          3.2790    -1.4270    -2.3480 hc         3 MOL       0.040367
    108 H20          2.5130    -3.5640    -3.3700 hc         3 MOL       0.039700
    109 H21          2.2630    -4.2560    -1.7340 hc         3 MOL       0.039700
    110 H22          4.6930    -4.0130    -1.2560 hc         3 MOL       0.041700
    111 H23          4.9470    -3.3240    -2.8970 hc         3 MOL       0.041700
    112 H24          3.9930    -5.3880    -3.9060 hc         3 MOL       0.040033
    113 H25          3.7400    -6.0710    -2.2670 hc         3 MOL       0.040033
    114 H26          6.1860    -5.9860    -1.8490 hc         3 MOL       0.055033
    115 H27          6.4440    -5.3040    -3.4930 hc         3 MOL       0.055033
    116 H28          5.3420    -7.3060    -4.4910 h1         3 MOL       0.027033
    117 H29          5.0840    -7.9800    -2.8470 h1         3 MOL       0.027033
    118 H30          6.5340    -9.1540    -5.0490 h1         3 MOL       0.040867
    119 H31          6.2660    -9.8120    -3.4010 h1         3 MOL       0.040867
    120 H32          8.6760    -9.9390    -3.0460 h1         3 MOL       0.042533
    121 H33          8.9560    -9.2810    -4.7090 h1         3 MOL       0.042533
    122 H34          9.4500   -12.0630    -3.7220 h1         3 MOL       0.042867
    123 H35          9.7560   -11.4340    -5.3900 h1         3 MOL       0.042867
    124 H36          7.9520   -12.7920    -6.2260 h1         3 MOL       0.043200
    125 H37          7.6440   -13.4050    -4.5560 h1         3 MOL       0.043200
    126 H38          8.6510   -14.9320    -6.8760 h1         3 MOL       0.043700
    127 H39          8.3070   -15.5150    -5.1980 h1         3 MOL       0.043700
    128 H40         10.6780   -15.8200    -4.8100 h1         3 MOL       0.042867
    129 H41         11.0390   -15.2540    -6.4780 h1         3 MOL       0.042867
    130 H42         11.5900   -17.8450    -5.2400 h1         3 MOL       0.032867
    131 H43         12.0000   -17.3240    -6.9140 h1         3 MOL       0.032867
    132 H46        -11.1680     8.0610    -2.0720 h1         3 MOL       0.065533
    133 H47        -11.1270     8.0960    -0.2770 h1         3 MOL       0.065533
    134 H48        -13.0820     6.5140    -0.2450 hc         3 MOL       0.044700
    135 H49        -13.0970     6.5030    -2.0400 hc         3 MOL       0.044700
    136 H50        -13.5410     8.9600    -2.0450 hc         3 MOL       0.043867
    137 H51        -13.5210     8.9610    -0.2490 hc         3 MOL       0.043867
    138 H52        -15.3960     7.3210    -0.2220 hc         3 MOL       0.040700
    139 H53        -15.4270     7.3210    -2.0160 hc         3 MOL       0.040700
    140 H54        -15.9740     9.7610    -1.9980 hc         3 MOL       0.041033
    141 H55        -15.9320     9.7500    -0.2010 hc         3 MOL       0.041033
    142 H56        -17.7390     8.0400    -0.1660 hc         3 MOL       0.039867
    143 H57        -17.7940     8.0540    -1.9600 hc         3 MOL       0.039867
    144 H58        -18.4070    10.4740    -1.9140 hc         3 MOL       0.040367
    145 H59        -18.3420    10.4490    -0.1190 hc         3 MOL       0.040367
    146 H60        -20.1080     8.6960    -0.0750 hc         3 MOL       0.039700
    147 H61        -20.1850     8.7230    -1.8690 hc         3 MOL       0.039700
    148 H62        -20.8480    11.1340    -1.7940 hc         3 MOL       0.041700
    149 H63        -20.7610    11.0960    -0.0010 hc         3 MOL       0.041700
    150 H64        -22.5110     9.3270     0.0520 hc         3 MOL       0.040033
    151 H65        -22.6100     9.3670    -1.7410 hc         3 MOL       0.040033
    152 H66        -23.2660    11.7750    -1.6430 hc         3 MOL       0.055033
    153 H67        -23.1580    11.7250     0.1500 hc         3 MOL       0.055033
    154 H68        -24.9180     9.9610     0.2120 h1         3 MOL       0.027033
    155 H69        -25.0390    10.0120    -1.5800 h1         3 MOL       0.027033
    156 H70        -27.1380    10.5910     0.3920 h1         3 MOL       0.040867
    157 H71        -27.2880    10.6650    -1.3980 h1         3 MOL       0.040867
    158 H72        -27.8450    13.0510    -1.2470 h1         3 MOL       0.042533
    159 H73        -27.6820    12.9630     0.5500 h1         3 MOL       0.042533
    160 H74        -30.1190    13.4610    -0.9760 h1         3 MOL       0.042867
    161 H75        -29.9200    13.3420     0.8140 h1         3 MOL       0.042867
    162 H76        -31.2680    11.3490     0.8360 h1         3 MOL       0.043200
    163 H77        -31.4820    11.4700    -0.9530 h1         3 MOL       0.043200
    164 H78        -33.5150    11.7650     1.1390 h1         3 MOL       0.043700
    165 H79        -33.7550    11.9170    -0.6460 h1         3 MOL       0.043700
    166 H80        -34.2230    14.3140    -0.3630 h1         3 MOL       0.042867
    167 H81        -33.9760    14.1510     1.4080 h1         3 MOL       0.042867
    168 H82        -36.3790    15.0740     0.0330 h1         3 MOL       0.032867
    169 H83        -36.1230    14.8890     1.7990 h1         3 MOL       0.032867
    170 H86         -9.4330    -1.5850    -1.1890 h1         3 MOL       0.065533
    171 H87         -8.7000    -1.5490    -2.8280 h1         3 MOL       0.065533
    172 H88        -10.8060    -0.5040    -3.7060 hc         3 MOL       0.044700
    173 H89        -11.5120    -0.5640    -2.0500 hc         3 MOL       0.044700
    174 H90        -11.0890    -3.0160    -1.9660 hc         3 MOL       0.043867
    175 H91        -10.3960    -2.9510    -3.6170 hc         3 MOL       0.043867
    176 H92        -12.6000    -2.2260    -4.5120 hc         3 MOL       0.040700
    177 H93        -13.2940    -2.3030    -2.8550 hc         3 MOL       0.040700
    178 H94        -12.5830    -4.6900    -2.6790 hc         3 MOL       0.041033
    179 H95        -11.8980    -4.6050    -4.3330 hc         3 MOL       0.041033
    180 H96        -14.1760    -4.1990    -5.2550 hc         3 MOL       0.039867
    181 H97        -14.8610    -4.2940    -3.5930 hc         3 MOL       0.039867
    182 H98        -13.8630    -6.5670    -3.3240 hc         3 MOL       0.040367
    183 H99        -13.1870    -6.4620    -4.9810 hc         3 MOL       0.040367
    184 H100       -15.4900    -6.3550    -5.9170 hc         3 MOL       0.039700
    185 H101       -16.1680    -6.4690    -4.2530 hc         3 MOL       0.039700
    186 H102       -14.9240    -8.6150    -3.9080 hc         3 MOL       0.041700
    187 H103       -14.2560    -8.4890    -5.5670 hc         3 MOL       0.041700
    188 H104       -16.5540    -8.6730    -6.5100 hc         3 MOL       0.040033
    189 H105       -17.2230    -8.8090    -4.8450 hc         3 MOL       0.040033
    190 H106       -15.7600   -10.7980    -4.4330 hc         3 MOL       0.055033
    191 H107       -15.1000   -10.6510    -6.0940 hc         3 MOL       0.055033
    192 H108       -17.3690   -11.0890    -7.0380 h1         3 MOL       0.027033
    193 H109       -18.0300   -11.2480    -5.3720 h1         3 MOL       0.027033
    194 H110       -17.9130   -13.3790    -7.4650 h1         3 MOL       0.040867
    195 H111       -18.5460   -13.5790    -5.7920 h1         3 MOL       0.040867
    196 H112       -16.7670   -15.2130    -5.3270 h1         3 MOL       0.042533
    197 H113       -16.1440   -14.9930    -7.0050 h1         3 MOL       0.042533
    198 H114       -17.1860   -17.3760    -5.8340 h1         3 MOL       0.042867
    199 H115       -16.6020   -17.1050    -7.5150 h1         3 MOL       0.042867
    200 H116       -18.7940   -17.6220    -8.3680 h1         3 MOL       0.043200
    201 H117       -19.3800   -17.9120    -6.6800 h1         3 MOL       0.043200
    202 H118       -18.9700   -19.9190    -8.8150 h1         3 MOL       0.043700
    203 H119       -19.5160   -20.2470    -7.1210 h1         3 MOL       0.043700
    204 H120       -17.3790   -21.3410    -6.6640 h1         3 MOL       0.042867
    205 H121       -16.8500   -21.0020    -8.3490 h1         3 MOL       0.042867
    206 H122       -17.1650   -23.6130    -7.1000 h1         3 MOL       0.032867
    207 H123       -16.6710   -23.2440    -8.7930 h1         3 MOL       0.032867
    208 N3          12.1110   -19.9920    -6.7160 n          3 MOL      -0.572233
    209 H124        10.5500   -19.1150    -7.8210 h1         3 MOL       0.076200
    210 H125        10.1180   -19.6250    -6.1530 h1         3 MOL       0.076200
    211 C69         12.1550   -21.1590    -7.3590 c          3 MOL       0.657767
    212 H126        12.8420   -19.7810    -6.0230 hn         3 MOL       0.308167
    213 O17         11.2260   -21.4850    -8.1050 o          3 MOL      -0.606100
    214 C70         13.3300   -22.0980    -7.1610 c3         3 MOL      -0.159400
    215 C71         13.2110   -23.3320    -8.0710 c3         3 MOL       0.140400
    216 H127        14.2670   -21.5500    -7.3510 hc         3 MOL       0.077200
    217 H128        13.3520   -22.4050    -6.1040 hc         3 MOL       0.077200
    218 O18         14.3210   -24.2220    -7.8230 os         3 MOL      -0.439267
    219 H129        12.2680   -23.8520    -7.8510 h1         3 MOL       0.047533
    220 H130        13.2130   -23.0090    -9.1230 h1         3 MOL       0.047533
    221 C72         14.2340   -25.3110    -8.6570 c3         3 MOL       0.108400
    222 C73         15.3290   -26.2310    -8.3140 c3         3 MOL       0.126400
    223 H131        14.3280   -24.9950    -9.7050 h1         3 MOL       0.042533
    224 H132        13.2760   -25.8290    -8.5110 h1         3 MOL       0.042533
    225 O19         15.1510   -27.2430    -9.2050 os         3 MOL      -0.425267
    226 H133        16.3120   -25.7520    -8.4510 h1         3 MOL       0.054700
    227 H134        15.2180   -26.5870    -7.2770 h1         3 MOL       0.054700
    228 C74         15.9920   -28.2390    -8.9850 c3         3 MOL       0.104400
    229 C75         15.6960   -29.1260   -10.0650 c3         3 MOL       0.112733
    230 H135        15.8030   -28.7200    -8.0180 h1         3 MOL       0.053033
    231 H136        17.0330   -27.9020    -9.0450 h1         3 MOL       0.053033
    232 O20         16.4950   -30.1040    -9.7900 os         3 MOL      -0.420600
    233 H137        14.6440   -29.4490   -10.0570 h1         3 MOL       0.055200
    234 H138        15.9520   -28.6420   -11.0150 h1         3 MOL       0.055200
    235 C76         16.6170   -31.0420   -10.7750 c3         3 MOL       0.127733
    236 C77         17.5670   -31.8720   -10.0840 c3         3 MOL       0.106400
    237 H139        17.0520   -30.6010   -11.6860 h1         3 MOL       0.051033
    238 H140        15.6780   -31.5690   -10.9970 h1         3 MOL       0.051033
    239 O21         18.0740   -32.9010   -10.8480 os         3 MOL      -0.421600
    240 H141        18.4110   -31.2200    -9.8100 h1         3 MOL       0.051200
    241 H142        17.0990   -32.2590    -9.1680 h1         3 MOL       0.051200
    242 C78         19.0030   -33.4990    -9.9800 c3         3 MOL       0.101733
    243 C79         20.1630   -34.1960   -10.7130 c3         3 MOL       0.159467
    244 H143        18.4890   -34.1750    -9.2770 h1         3 MOL       0.055033
    245 H144        19.4490   -32.6960    -9.4270 h1         3 MOL       0.055033
    246 N4          21.2130   -34.6670    -9.7180 nh         3 MOL      -0.725933
    247 H145        19.7910   -35.0440   -11.3160 h1         3 MOL       0.085533
    248 H146        20.6230   -33.4480   -11.3780 h1         3 MOL       0.085533
    249 H147        21.4500   -35.6550    -9.7580 hn         3 MOL       0.432133
    250 N5         -38.7560    15.2370     1.3200 n          3 MOL      -0.572233
    251 H148       -38.1170    13.3230     1.9240 h1         3 MOL       0.076200
    252 H149       -38.3840    13.5100     0.1670 h1         3 MOL       0.076200
    253 C80        -40.1030    15.2610     1.4680 c          3 MOL       0.657767
    254 H150       -38.2590    16.0950     1.3860 hn         3 MOL       0.308167
    255 O22        -40.7940    14.2330     1.3990 o          3 MOL      -0.606100
    256 C81        -40.7970    16.5930     1.7330 c3         3 MOL      -0.159400
    257 C82        -42.3500    16.4540     1.7000 c3         3 MOL       0.140400
    258 H151       -40.4470    17.3280     0.9910 hc         3 MOL       0.077200
    259 H152       -40.4730    16.9620     2.7190 hc         3 MOL       0.077200
    260 O23        -42.9670    17.7300     1.9670 os         3 MOL      -0.439267
    261 H153       -42.6620    16.0950     0.7090 h1         3 MOL       0.047533
    262 H154       -42.6650    15.7300     2.4660 h1         3 MOL       0.047533
    263 C83        -44.3850    17.5860     1.9350 c3         3 MOL       0.108400
    264 C84        -45.0300    18.9600     2.2350 c3         3 MOL       0.126400
    265 H155       -44.6970    16.8540     2.6970 h1         3 MOL       0.042533
    266 H156       -44.6970    17.2360     0.9380 h1         3 MOL       0.042533
    267 O24        -46.4540    18.8670     2.2130 os         3 MOL      -0.425267
    268 H157       -44.7070    19.3030     3.2300 h1         3 MOL       0.054700
    269 H158       -44.7050    19.6880     1.4760 h1         3 MOL       0.054700
    270 C85        -46.9690    20.1640     2.5050 c3         3 MOL       0.104400
    271 C86        -48.5190    20.1580     2.4920 c3         3 MOL       0.112733
    272 H159       -46.6020    20.8740     1.7470 h1         3 MOL       0.053033
    273 H160       -46.6130    20.4770     3.4990 h1         3 MOL       0.053033
    274 O25        -48.9850    21.4690     2.7870 os         3 MOL      -0.420600
    275 H161       -48.8820    19.8560     1.4970 h1         3 MOL       0.055200
    276 H162       -48.8970    19.4550     3.2510 h1         3 MOL       0.055200
    277 C87        -50.4080    21.4770     2.7650 c3         3 MOL       0.127733
    278 C88        -50.9020    22.8850     3.0890 c3         3 MOL       0.106400
    279 H163       -50.7550    21.1730     1.7660 h1         3 MOL       0.051033
    280 H164       -50.7950    20.7740     3.5130 h1         3 MOL       0.051033
    281 O26        -52.3410    22.9060     3.0630 os         3 MOL      -0.421600
    282 H165       -50.5430    23.1930     4.0860 h1         3 MOL       0.051200
    283 H166       -50.5120    23.5770     2.3250 h1         3 MOL       0.051200
    284 C89        -52.8120    24.2490     3.2220 c3         3 MOL       0.101733
    285 C90        -54.3840    24.2810     3.0750 c3         3 MOL       0.159467
    286 H167       -52.3680    24.8600     2.4220 h1         3 MOL       0.055033
    287 H168       -52.5060    24.6460     4.2030 h1         3 MOL       0.055033
    288 N6         -54.9660    25.6700     3.1270 nh         3 MOL      -0.725933
    289 H169       -54.6360    23.8420     2.1020 h1         3 MOL       0.085533
    290 H170       -54.8280    23.6700     3.8720 h1         3 MOL       0.085533
    291 H171       -55.5660    25.8580     3.9090 hn         3 MOL       0.432133
    292 N7         -17.5160   -25.7730    -8.6490 n          3 MOL      -0.572233
    293 H172       -18.7070   -24.4070    -9.6300 h1         3 MOL       0.076200
    294 H173       -19.1920   -24.7810    -7.9600 h1         3 MOL       0.076200
    295 C91        -18.0390   -26.9240    -9.0670 c          3 MOL       0.657767
    296 H174       -16.5640   -25.7310    -8.3700 hn         3 MOL       0.308167
    297 O27        -19.2240   -26.9610    -9.4160 o          3 MOL      -0.606100
    298 C92        -17.1990   -28.1810    -9.1350 c3         3 MOL      -0.159400
    299 C93        -17.9910   -29.2940    -9.8320 c3         3 MOL       0.140400
    300 H175       -16.9240   -28.4860    -8.1120 hc         3 MOL       0.077200
    301 H176       -16.2610   -27.9580    -9.6660 hc         3 MOL       0.077200
    302 O28        -17.2010   -30.5000    -9.9170 os         3 MOL      -0.439267
    303 H177       -18.2580   -28.9590   -10.8450 h1         3 MOL       0.047533
    304 H178       -18.9100   -29.4910    -9.2610 h1         3 MOL       0.047533
    305 C94        -17.9490   -31.4620   -10.5540 c3         3 MOL       0.108400
    306 C95        -17.1420   -32.6860   -10.6920 c3         3 MOL       0.126400
    307 H179       -18.2330   -31.1110   -11.5560 h1         3 MOL       0.042533
    308 H180       -18.8540   -31.6860    -9.9730 h1         3 MOL       0.042533
    309 O29        -18.0140   -33.5030   -11.3420 os         3 MOL      -0.425267
    310 H181       -16.8560   -33.0970    -9.7100 h1         3 MOL       0.054700
    311 H182       -16.2460   -32.4930   -11.3050 h1         3 MOL       0.054700
    312 C96        -17.4890   -34.6770   -11.6500 c3         3 MOL       0.104400
    313 C97        -18.5730   -35.2920   -12.3360 c3         3 MOL       0.112733
    314 H183       -17.2100   -35.2440   -10.7550 h1         3 MOL       0.053033
    315 H184       -16.6290   -34.5730   -12.3180 h1         3 MOL       0.053033
    316 O30        -18.0230   -36.4180   -12.6660 os         3 MOL      -0.420600
    317 H185       -18.8740   -34.7130   -13.2210 h1         3 MOL       0.055200
    318 H186       -19.4230   -35.4260   -11.6490 h1         3 MOL       0.055200
    319 C98        -18.8800   -37.3120   -13.2140 c3         3 MOL       0.127733
    320 C99        -17.9540   -38.4010   -13.3020 c3         3 MOL       0.106400
    321 H187       -19.2800   -37.0020   -14.1940 h1         3 MOL       0.051033
    322 H188       -19.6930   -37.5530   -12.5120 h1         3 MOL       0.051033
    323 O31        -18.5760   -39.5420   -13.6830 os         3 MOL      -0.421600
    324 H189       -17.5630   -38.5550   -12.2840 h1         3 MOL       0.051200
    325 H190       -17.1260   -38.1480   -13.9720 h1         3 MOL       0.051200
    326 C100       -17.6150   -40.5210   -13.4940 c3         3 MOL       0.101733
    327 C101       -18.2950   -41.8540   -13.2450 c3         3 MOL       0.159467
    328 H191       -17.0930   -40.2730   -12.5800 h1         3 MOL       0.055033
    329 H192       -16.8920   -40.5520   -14.3280 h1         3 MOL       0.055033
    330 N8         -17.2830   -42.8490   -12.8130 nh         3 MOL      -0.725933
    331 H193       -19.0050   -41.7020   -12.4270 h1         3 MOL       0.085533
    332 H194       -18.8340   -42.1870   -14.1490 h1         3 MOL       0.085533
    333 H195       -17.1220   -43.6410   -13.4400 hn         3 MOL       0.432133
    334 C102        21.8800   -33.8490    -8.6800 ca         3 MOL       0.285933
    335 C103        22.5930   -34.6180    -7.7030 ca         3 MOL      -0.230333
    336 H196        22.6250   -35.6570    -7.7720 ha         3 MOL       0.155000
    337 C104        23.2160   -34.0080    -6.7220 ca         3 MOL       0.003333
    338 H197        23.7510   -34.5610    -6.0010 ha         3 MOL       0.178333
    339 C105        23.1550   -32.5920    -6.6270 ca         3 MOL      -0.245867
    340 C106        22.5150   -31.8620    -7.4800 ca         3 MOL       0.029333
    341 H198        22.5040   -30.7980    -7.3740 ha         3 MOL       0.195667
    342 C107        21.8860   -32.4900    -8.5440 ca         3 MOL      -0.259533
    343 C108       -54.8180    26.7310     2.1410 ca         3 MOL       0.285933
    344 C109       -54.0010    26.7430     0.8440 ca         3 MOL      -0.259533
    345 C110       -53.8980    27.8230     0.1320 ca         3 MOL       0.029333
    346 H199       -53.3240    27.8360    -0.7700 ha         3 MOL       0.195667
    347 C111       -54.5730    28.9090     0.5150 ca         3 MOL      -0.245867
    348 C112       -55.3260    28.9640     1.6020 ca         3 MOL       0.003333
    349 H200       -55.8330    29.8470     1.8380 ha         3 MOL       0.178333
    350 C113       -55.4380    27.8500     2.4500 ca         3 MOL      -0.230333
    351 H201       -56.0010    27.9170     3.3240 ha         3 MOL       0.155000
    352 C114       -16.5090   -42.7900   -11.5590 ca         3 MOL       0.285933
    353 C115       -15.4920   -43.7920   -11.4440 ca         3 MOL      -0.230333
    354 H202       -15.3490   -44.4870   -12.2070 ha         3 MOL       0.155000
    355 C116       -14.7490   -43.8430   -10.3630 ca         3 MOL       0.003333
    356 H203       -14.0050   -44.5800   -10.2570 ha         3 MOL       0.178333
    357 C117       -14.9450   -42.8810    -9.3350 ca         3 MOL      -0.245867
    358 C118       -15.8350   -41.9500    -9.4120 ca         3 MOL       0.029333
    359 H204       -15.9550   -41.2530    -8.6130 ha         3 MOL       0.195667
    360 C119       -16.6520   -41.9100   -10.5220 ca         3 MOL      -0.259533
    361 N9          21.3630   -31.6770    -9.4140 no         3 MOL       0.314867
    362 O32         20.4630   -30.7300    -9.0630 o          3 MOL      -0.199667
    363 O33         21.6920   -31.8320   -10.5290 o          3 MOL      -0.199667
    364 N10         23.7390   -32.0700    -5.7050 no         3 MOL       0.326533
    365 O34         23.6530   -30.7880    -5.3810 o          3 MOL      -0.206500
    366 O35         24.3670   -32.7790    -5.0600 o          3 MOL      -0.206500
    367 N11        -54.5180    29.8940    -0.1850 no         3 MOL       0.326533
    368 O36        -55.2690    30.8280     0.1310 o          3 MOL      -0.206500
    369 O37        -53.8150    30.0050    -1.1190 o          3 MOL      -0.206500
    370 N12        -53.3730    25.7410     0.3580 no         3 MOL       0.314867
    371 O38        -52.1200    25.8460     0.0540 o          3 MOL      -0.199667
    372 O39        -53.8010    24.6680     0.4610 o          3 MOL      -0.199667
    373 N13        -14.2380   -42.9660    -8.3500 no         3 MOL       0.326533
    374 O40        -14.1450   -42.0420    -7.4040 o          3 MOL      -0.206500
    375 O41        -13.5770   -43.9010    -8.2980 o          3 MOL      -0.206500
    376 N14        -17.6020   -41.0100   -10.4460 no         3 MOL       0.314867
    377 O42        -18.8340   -41.4880   -10.3700 o          3 MOL      -0.199667
    378 O43        -17.3740   -39.8430   -10.3920 o          3 MOL      -0.199667
@<TRIPOS>BOND
     1     1    10 1   
     2     1    13 1   
     3     1    91 1   
     4     2    11 1   
     5     2    12 1   
     6     2    92 1   
     7     3    14 1   
     8     3    15 1   
     9     3    93 1   
    10     4     5 ar  
    11     4     9 ar  
    12     4    15 1   
    13     5     6 ar  
    14     5    88 1   
    15     6     7 ar  
    16     6    11 1   
    17     7     8 ar  
    18     7    89 1   
    19     8     9 ar  
    20     8    10 1   
    21     9    90 1   
    22    10    73 2   
    23    11    74 2   
    24    12    54 1   
    25    12   170 1   
    26    12   171 1   
    27    13    35 1   
    28    13   132 1   
    29    13   133 1   
    30    14    16 1   
    31    14    94 1   
    32    14    95 1   
    33    15    75 2   
    34    16    17 1   
    35    16    96 1   
    36    16    97 1   
    37    17    18 1   
    38    17    98 1   
    39    17    99 1   
    40    18    19 1   
    41    18   100 1   
    42    18   101 1   
    43    19    20 1   
    44    19   102 1   
    45    19   103 1   
    46    20    21 1   
    47    20   104 1   
    48    20   105 1   
    49    21    22 1   
    50    21   106 1   
    51    21   107 1   
    52    22    23 1   
    53    22   108 1   
    54    22   109 1   
    55    23    24 1   
    56    23   110 1   
    57    23   111 1   
    58    24    25 1   
    59    24   112 1   
    60    24   113 1   
    61    25    26 1   
    62    25   114 1   
    63    25   115 1   
    64    26    76 1   
    65    26   116 1   
    66    26   117 1   
    67    27    28 1   
    68    27    76 1   
    69    27   118 1   
    70    27   119 1   
    71    28    77 1   
    72    28   120 1   
    73    28   121 1   
    74    29    30 1   
    75    29    77 1   
    76    29   122 1   
    77    29   123 1   
    78    30    78 1   
    79    30   124 1   
    80    30   125 1   
    81    31    32 1   
    82    31    78 1   
    83    31   126 1   
    84    31   127 1   
    85    32    79 1   
    86    32   128 1   
    87    32   129 1   
    88    33    34 1   
    89    33    79 1   
    90    33   130 1   
    91    33   131 1   
    92    34   208 1   
    93    34   209 1   
    94    34   210 1   
    95    35    36 1   
    96    35   134 1   
    97    35   135 1   
    98    36    37 1   
    99    36   136 1   
   100    36   137 1   
   101    37    38 1   
   102    37   138 1   
   103    37   139 1   
   104    38    39 1   
   105    38   140 1   
   106    38   141 1   
   107    39    40 1   
   108    39   142 1   
   109    39   143 1   
   110    40    41 1   
   111    40   144 1   
   112    40   145 1   
   113    41    42 1   
   114    41   146 1   
   115    41   147 1   
   116    42    43 1   
   117    42   148 1   
   118    42   149 1   
   119    43    44 1   
   120    43   150 1   
   121    43   151 1   
   122    44    45 1   
   123    44   152 1   
   124    44   153 1   
   125    45    80 1   
   126    45   154 1   
   127    45   155 1   
   128    46    47 1   
   129    46    80 1   
   130    46   156 1   
   131    46   157 1   
   132    47    81 1   
   133    47   158 1   
   134    47   159 1   
   135    48    49 1   
   136    48    81 1   
   137    48   160 1   
   138    48   161 1   
   139    49    82 1   
   140    49   162 1   
   141    49   163 1   
   142    50    51 1   
   143    50    82 1   
   144    50   164 1   
   145    50   165 1   
   146    51    83 1   
   147    51   166 1   
   148    51   167 1   
   149    52    53 1   
   150    52    83 1   
   151    52   168 1   
   152    52   169 1   
   153    53   250 1   
   154    53   251 1   
   155    53   252 1   
   156    54    55 1   
   157    54   172 1   
   158    54   173 1   
   159    55    56 1   
   160    55   174 1   
   161    55   175 1   
   162    56    57 1   
   163    56   176 1   
   164    56   177 1   
   165    57    58 1   
   166    57   178 1   
   167    57   179 1   
   168    58    59 1   
   169    58   180 1   
   170    58   181 1   
   171    59    60 1   
   172    59   182 1   
   173    59   183 1   
   174    60    61 1   
   175    60   184 1   
   176    60   185 1   
   177    61    62 1   
   178    61   186 1   
   179    61   187 1   
   180    62    63 1   
   181    62   188 1   
   182    62   189 1   
   183    63    64 1   
   184    63   190 1   
   185    63   191 1   
   186    64    84 1   
   187    64   192 1   
   188    64   193 1   
   189    65    66 1   
   190    65    84 1   
   191    65   194 1   
   192    65   195 1   
   193    66    85 1   
   194    66   196 1   
   195    66   197 1   
   196    67    68 1   
   197    67    85 1   
   198    67   198 1   
   199    67   199 1   
   200    68    86 1   
   201    68   200 1   
   202    68   201 1   
   203    69    70 1   
   204    69    86 1   
   205    69   202 1   
   206    69   203 1   
   207    70    87 1   
   208    70   204 1   
   209    70   205 1   
   210    71    72 1   
   211    71    87 1   
   212    71   206 1   
   213    71   207 1   
   214    72   292 1   
   215    72   293 1   
   216    72   294 1   
   217   208   211 1   
   218   208   212 1   
   219   211   213 2   
   220   211   214 1   
   221   214   215 1   
   222   214   216 1   
   223   214   217 1   
   224   215   218 1   
   225   215   219 1   
   226   215   220 1   
   227   218   221 1   
   228   221   222 1   
   229   221   223 1   
   230   221   224 1   
   231   222   225 1   
   232   222   226 1   
   233   222   227 1   
   234   225   228 1   
   235   228   229 1   
   236   228   230 1   
   237   228   231 1   
   238   229   232 1   
   239   229   233 1   
   240   229   234 1   
   241   232   235 1   
   242   235   236 1   
   243   235   237 1   
   244   235   238 1   
   245   236   239 1   
   246   236   240 1   
   247   236   241 1   
   248   239   242 1   
   249   242   243 1   
   250   242   244 1   
   251   242   245 1   
   252   243   246 1   
   253   243   247 1   
   254   243   248 1   
   255   246   249 1   
   256   246   334 1   
   257   250   253 1   
   258   250   254 1   
   259   253   255 2   
   260   253   256 1   
   261   256   257 1   
   262   256   258 1   
   263   256   259 1   
   264   257   260 1   
   265   257   261 1   
   266   257   262 1   
   267   260   263 1   
   268   263   264 1   
   269   263   265 1   
   270   263   266 1   
   271   264   267 1   
   272   264   268 1   
   273   264   269 1   
   274   267   270 1   
   275   270   271 1   
   276   270   272 1   
   277   270   273 1   
   278   271   274 1   
   279   271   275 1   
   280   271   276 1   
   281   274   277 1   
   282   277   278 1   
   283   277   279 1   
   284   277   280 1   
   285   278   281 1   
   286   278   282 1   
   287   278   283 1   
   288   281   284 1   
   289   284   285 1   
   290   284   286 1   
   291   284   287 1   
   292   285   288 1   
   293   285   289 1   
   294   285   290 1   
   295   288   291 1   
   296   288   343 1   
   297   292   295 1   
   298   292   296 1   
   299   295   297 2   
   300   295   298 1   
   301   298   299 1   
   302   298   300 1   
   303   298   301 1   
   304   299   302 1   
   305   299   303 1   
   306   299   304 1   
   307   302   305 1   
   308   305   306 1   
   309   305   307 1   
   310   305   308 1   
   311   306   309 1   
   312   306   310 1   
   313   306   311 1   
   314   309   312 1   
   315   312   313 1   
   316   312   314 1   
   317   312   315 1   
   318   313   316 1   
   319   313   317 1   
   320   313   318 1   
   321   316   319 1   
   322   319   320 1   
   323   319   321 1   
   324   319   322 1   
   325   320   323 1   
   326   320   324 1   
   327   320   325 1   
   328   323   326 1   
   329   326   327 1   
   330   326   328 1   
   331   326   329 1   
   332   327   330 1   
   333   327   331 1   
   334   327   332 1   
   335   330   333 1   
   336   330   352 1   
   337   334   335 ar  
   338   334   342 ar  
   339   335   336 1   
   340   335   337 ar  
   341   337   338 1   
   342   337   339 ar  
   343   339   340 ar  
   344   339   364 1   
   345   340   341 1   
   346   340   342 ar  
   347   342   361 1   
   348   343   344 ar  
   349   343   350 ar  
   350   344   345 ar  
   351   344   370 1   
   352   345   346 1   
   353   345   347 ar  
   354   347   348 ar  
   355   347   367 1   
   356   348   349 1   
   357   348   350 ar  
   358   350   351 1   
   359   352   353 ar  
   360   352   360 ar  
   361   353   354 1   
   362   353   355 ar  
   363   355   356 1   
   364   355   357 ar  
   365   357   358 ar  
   366   357   373 1   
   367   358   359 1   
   368   358   360 ar  
   369   360   376 1   
   370   361   362 1   
   371   361   363 1   
   372   364   365 1   
   373   364   366 1   
   374   367   368 1   
   375   367   369 1   
   376   370   371 1   
   377   370   372 1   
   378   373   374 1   
   379   373   375 1   
   380   376   377 1   
   381   376   378 1   
@<TRIPOS>SUBSTRUCTURE
     1 MOL         1 TEMP              0 ****  ****    0 ROOT
