@<TRIPOS>MOLECULE
MOL
  219   219     1     0     0
SMALL
bcc


@<TRIPOS>ATOM
      1 N          -10.5990     6.2900    -1.1540 n          3 MOL      -0.562567
      2 N1          -8.8440     0.2980    -1.8560 n          3 MOL      -0.562567
      3 N2          -4.4490     2.6950    -0.7140 n          3 MOL      -0.562567
      4 C           -6.6380     3.6490    -0.3330 ca         3 MOL      -0.155267
      5 C1          -7.3350     2.4600    -0.5980 ca         3 MOL      -0.039000
      6 C2          -8.7210     2.4630    -0.8050 ca         3 MOL      -0.155267
      7 C3          -9.4150     3.6780    -0.7350 ca         3 MOL      -0.039000
      8 C4          -8.7410     4.8860    -0.4890 ca         3 MOL      -0.155267
      9 C5          -7.3550     4.8510    -0.2790 ca         3 MOL      -0.039000
     10 C6          -9.4720     6.2070    -0.4370 c          3 MOL       0.667367
     11 C7          -9.4650     1.1800    -1.0680 c          3 MOL       0.667367
     12 C8          -9.3800    -1.0310    -2.1300 c3         3 MOL       0.083000
     13 C9         -11.3630     7.4940    -1.1700 c3         3 MOL       0.083000
     14 C10         -3.0240     2.6160    -0.5360 c3         3 MOL       0.083000
     15 C11         -5.1490     3.6470    -0.0880 c          3 MOL       0.667367
     16 C12         -2.5050     1.2780    -1.0600 c3         3 MOL      -0.105400
     17 C13         -0.9880     1.1920    -0.8740 c3         3 MOL      -0.077400
     18 C14         -0.5450    -0.1690    -1.4090 c3         3 MOL      -0.078733
     19 C15          0.9670    -0.3630    -1.2630 c3         3 MOL      -0.079400
     20 C16          1.2790    -1.7510    -1.8160 c3         3 MOL      -0.078733
     21 C17          2.7690    -2.0750    -1.7210 c3         3 MOL      -0.079400
     22 C18          2.9340    -3.4820    -2.2910 c3         3 MOL      -0.079400
     23 C19          4.3900    -3.9450    -2.2510 c3         3 MOL      -0.078400
     24 C20          4.4120    -5.3560    -2.8330 c3         3 MOL      -0.078400
     25 C21          5.8250    -5.9270    -2.8360 c3         3 MOL      -0.084400
     26 C22          5.7340    -7.3370    -3.4240 c3         3 MOL       0.133400
     27 C23          6.8690    -9.2220    -3.9830 c3         3 MOL       0.128400
     28 C24          8.1800    -9.8920    -4.0250 c3         3 MOL       0.130400
     29 C25          8.8870   -11.9060    -4.6780 c3         3 MOL       0.130400
     30 C26          8.2810   -13.0700    -5.2190 c3         3 MOL       0.129400
     31 C27          8.9600   -15.0640    -5.8490 c3         3 MOL       0.130400
     32 C28         10.2170   -15.7420    -5.8880 c3         3 MOL       0.128400
     33 C29         11.0450   -17.7160    -6.4600 c3         3 MOL       0.094400
     34 C30         10.5440   -18.9990    -6.9920 c3         3 MOL       0.125400
     35 C31        -12.8490     7.1400    -1.1870 c3         3 MOL      -0.105400
     36 C32        -13.6860     8.4190    -1.2040 c3         3 MOL      -0.077400
     37 C33        -15.1600     8.0160    -1.2040 c3         3 MOL      -0.078733
     38 C34        -16.0540     9.2560    -1.2020 c3         3 MOL      -0.079400
     39 C35        -17.5030     8.7770    -1.1760 c3         3 MOL      -0.078733
     40 C36        -18.4570     9.9690    -1.1480 c3         3 MOL      -0.079400
     41 C37        -19.8810     9.4190    -1.0930 c3         3 MOL      -0.079400
     42 C38        -20.8880    10.5660    -1.0350 c3         3 MOL      -0.078400
     43 C39        -22.2920     9.9660    -0.9520 c3         3 MOL      -0.078400
     44 C40        -23.3230    11.0900    -0.8660 c3         3 MOL      -0.084400
     45 C41        -24.7210    10.4700    -0.7560 c3         3 MOL       0.133400
     46 C42        -26.9580    10.9650    -0.5120 c3         3 MOL       0.128400
     47 C43        -27.9140    12.0800    -0.3800 c3         3 MOL       0.130400
     48 C44        -30.0700    12.4070    -0.0690 c3         3 MOL       0.130400
     49 C45        -31.2890    11.6860     0.1090 c3         3 MOL       0.129400
     50 C46        -33.3880    12.3270     0.4700 c3         3 MOL       0.130400
     51 C47        -34.0070    13.6130     0.6050 c3         3 MOL       0.128400
     52 C48        -35.9770    14.5460     0.9540 c3         3 MOL       0.094400
     53 C49        -37.3800    14.1370     1.1690 c3         3 MOL       0.125400
     54 C50        -10.7990    -1.0380    -2.7290 c3         3 MOL      -0.105400
     55 C51        -11.1420    -2.5150    -2.9110 c3         3 MOL      -0.077400
     56 C52        -12.5360    -2.7270    -3.4940 c3         3 MOL      -0.078733
     57 C53        -12.6970    -4.2450    -3.6130 c3         3 MOL      -0.079400
     58 C54        -14.0530    -4.6580    -4.1890 c3         3 MOL      -0.078733
     59 C55        -14.0230    -6.1880    -4.2450 c3         3 MOL      -0.079400
     60 C56        -15.3140    -6.7790    -4.8120 c3         3 MOL      -0.079400
     61 C57        -15.1080    -8.3020    -4.8170 c3         3 MOL      -0.078400
     62 C58        -16.3180    -9.0580    -5.3770 c3         3 MOL      -0.078400
     63 C59        -15.9480   -10.5510    -5.3370 c3         3 MOL      -0.084400
     64 C60        -17.0710   -11.4430    -5.8920 c3         3 MOL       0.133400
     65 C61        -17.5340   -13.6940    -6.3430 c3         3 MOL       0.128400
     66 C62        -16.9110   -15.0340    -6.2570 c3         3 MOL       0.130400
     67 C63        -17.2820   -17.1370    -6.7850 c3         3 MOL       0.130400
     68 C64        -18.2560   -17.9940    -7.3840 c3         3 MOL       0.129400
     69 C65        -18.2920   -20.1600    -7.8760 c3         3 MOL       0.130400
     70 C66        -17.3540   -21.2310    -7.7210 c3         3 MOL       0.128400
     71 C67        -17.1590   -23.3940    -8.1490 c3         3 MOL       0.094400
     72 C68        -17.9680   -24.4760    -8.7470 c3         3 MOL       0.125400
     73 O           -9.0240     7.1590     0.2050 o          3 MOL      -0.591433
     74 O1         -10.5780     0.9770    -0.5780 o          3 MOL      -0.591433
     75 O2          -4.6210     4.4870     0.6430 o          3 MOL      -0.591433
     76 O3           7.0210    -7.9550    -3.4590 os         3 MOL      -0.427600
     77 O4           7.8490   -11.1120    -4.5520 os         3 MOL      -0.430600
     78 O5           9.3160   -13.8830    -5.3490 os         3 MOL      -0.430600
     79 O6           9.9170   -16.9290    -6.3770 os         3 MOL      -0.425600
     80 O7          11.6160   -19.8740    -7.1050 oh         3 MOL      -0.592800
     81 O8         -25.6900    11.5140    -0.6530 os         3 MOL      -0.427600
     82 O9         -29.1450    11.4770    -0.2260 os         3 MOL      -0.430600
     83 O10        -32.1290    12.7040     0.2660 os         3 MOL      -0.430600
     84 O11        -35.2840    13.3580     0.8170 os         3 MOL      -0.425600
     85 O12        -38.1520    15.2860     1.3110 oh         3 MOL      -0.592800
     86 O13        -16.6030   -12.7970    -5.8270 os         3 MOL      -0.427600
     87 O14        -17.8230   -15.9230    -6.7930 os         3 MOL      -0.430600
     88 O15        -17.6020   -19.1560    -7.3440 os         3 MOL      -0.430600
     89 O16        -17.9660   -22.2780    -8.2380 os         3 MOL      -0.425600
     90 O17        -17.2330   -25.6540    -8.6960 oh         3 MOL      -0.592800
     91 H253        -6.8030     1.5170    -0.6150 ha         3 MOL       0.162000
     92 H254       -10.4900     3.6720    -0.8710 ha         3 MOL       0.162000
     93 H255        -6.8240     5.7740    -0.0810 ha         3 MOL       0.162000
     94 H250       -10.8480     5.4950    -1.7220 hn         3 MOL       0.303833
     95 H251        -8.0170     0.6210    -2.3510 hn         3 MOL       0.303833
     96 H252        -4.9470     2.1130    -1.3700 hn         3 MOL       0.303833
     97 H6          -2.7880     2.7340     0.5320 h1         3 MOL       0.065200
     98 H7          -2.5510     3.4400    -1.0880 h1         3 MOL       0.065200
     99 H8          -2.7420     1.1850    -2.1290 hc         3 MOL       0.044533
    100 H9          -2.9820     0.4590    -0.5050 hc         3 MOL       0.044533
    101 H10         -0.7380     1.2750     0.1930 hc         3 MOL       0.043867
    102 H11         -0.4950     1.9990    -1.4340 hc         3 MOL       0.043867
    103 H12         -0.8170    -0.2440    -2.4710 hc         3 MOL       0.040700
    104 H13         -1.0620    -0.9580    -0.8450 hc         3 MOL       0.040700
    105 H14          1.2560    -0.3080    -0.2030 hc         3 MOL       0.040867
    106 H15          1.5070     0.4040    -1.8370 hc         3 MOL       0.040867
    107 H16          0.9680    -1.7960    -2.8690 hc         3 MOL       0.039867
    108 H17          0.7150    -2.4970    -1.2390 hc         3 MOL       0.039867
    109 H18          3.0950    -2.0510    -0.6710 hc         3 MOL       0.040533
    110 H19          3.3540    -1.3530    -2.3090 hc         3 MOL       0.040533
    111 H20          2.5840    -3.4900    -3.3330 hc         3 MOL       0.039700
    112 H21          2.3240    -4.1780    -1.6980 hc         3 MOL       0.039700
    113 H22          4.7540    -3.9620    -1.2150 hc         3 MOL       0.042033
    114 H23          5.0200    -3.2780    -2.8560 hc         3 MOL       0.042033
    115 H24          4.0320    -5.3280    -3.8640 hc         3 MOL       0.040200
    116 H25          3.7650    -6.0030    -2.2240 hc         3 MOL       0.040200
    117 H26          6.2130    -5.9730    -1.8070 hc         3 MOL       0.055200
    118 H27          6.4840    -5.3000    -3.4540 hc         3 MOL       0.055200
    119 H28          5.3290    -7.2760    -4.4460 h1         3 MOL       0.027533
    120 H29          5.0580    -7.9410    -2.8000 h1         3 MOL       0.027533
    121 H30          6.4620    -9.1630    -5.0020 h1         3 MOL       0.039700
    122 H31          6.1890    -9.8090    -3.3500 h1         3 MOL       0.039700
    123 H32          8.6010    -9.9960    -3.0120 h1         3 MOL       0.042200
    124 H33          8.8800    -9.3490    -4.6790 h1         3 MOL       0.042200
    125 H34          9.3480   -12.1280    -3.7060 h1         3 MOL       0.042367
    126 H35          9.6320   -11.4960    -5.3750 h1         3 MOL       0.042367
    127 H36          7.8160   -12.8450    -6.1910 h1         3 MOL       0.042700
    128 H37          7.5330   -13.4730    -4.5200 h1         3 MOL       0.042700
    129 H38          8.5380   -14.9660    -6.8610 h1         3 MOL       0.042700
    130 H39          8.2570   -15.5900    -5.1870 h1         3 MOL       0.042700
    131 H40         10.6310   -15.8230    -4.8740 h1         3 MOL       0.042200
    132 H41         10.9170   -15.2060    -6.5430 h1         3 MOL       0.042200
    133 H42         11.4910   -17.8630    -5.4630 h1         3 MOL       0.033700
    134 H43         11.7840   -17.2710    -7.1440 h1         3 MOL       0.033700
    135 H44         10.0850   -18.8330    -7.9760 h1         3 MOL       0.059367
    136 H45          9.7970   -19.4090    -6.2990 h1         3 MOL       0.059367
    137 H46        -11.1240     8.0650    -2.0790 h1         3 MOL       0.065200
    138 H47        -11.1150     8.0990    -0.2850 h1         3 MOL       0.065200
    139 H48        -13.0940     6.5590    -0.2870 hc         3 MOL       0.044533
    140 H49        -13.0760     6.5430    -2.0820 hc         3 MOL       0.044533
    141 H50        -13.4540     9.0060    -2.1040 hc         3 MOL       0.043867
    142 H51        -13.4650     9.0160    -0.3070 hc         3 MOL       0.043867
    143 H52        -15.3680     7.4230    -0.3020 hc         3 MOL       0.040700
    144 H53        -15.3740     7.4110    -2.0960 hc         3 MOL       0.040700
    145 H54        -15.8720     9.8580    -2.1040 hc         3 MOL       0.040867
    146 H55        -15.8500     9.8600    -0.3060 hc         3 MOL       0.040867
    147 H56        -17.6630     8.1700    -0.2740 hc         3 MOL       0.039867
    148 H57        -17.7050     8.1660    -2.0670 hc         3 MOL       0.039867
    149 H58        -18.3210    10.5830    -2.0500 hc         3 MOL       0.040533
    150 H59        -18.2610    10.5770    -0.2530 hc         3 MOL       0.040533
    151 H60        -19.9890     8.7990    -0.1920 hc         3 MOL       0.039700
    152 H61        -20.0720     8.8040    -1.9850 hc         3 MOL       0.039700
    153 H62        -20.8010    11.1920    -1.9350 hc         3 MOL       0.042033
    154 H63        -20.6990    11.1770    -0.1410 hc         3 MOL       0.042033
    155 H64        -22.3640     9.3400    -0.0510 hc         3 MOL       0.040200
    156 H65        -22.4860     9.3520    -1.8420 hc         3 MOL       0.040200
    157 H66        -23.2620    11.7210    -1.7640 hc         3 MOL       0.055200
    158 H67        -23.1220    11.7000     0.0270 hc         3 MOL       0.055200
    159 H68        -24.7660     9.8400     0.1450 h1         3 MOL       0.027533
    160 H69        -24.9270     9.8560    -1.6450 h1         3 MOL       0.027533
    161 H70        -27.0010    10.3430     0.3920 h1         3 MOL       0.039700
    162 H71        -27.2140    10.3600    -1.3930 h1         3 MOL       0.039700
    163 H72        -27.8980    12.7110    -1.2830 h1         3 MOL       0.042200
    164 H73        -27.6670    12.6840     0.5070 h1         3 MOL       0.042200
    165 H74        -30.1380    13.0510    -0.9560 h1         3 MOL       0.042367
    166 H75        -29.8660    13.0150     0.8240 h1         3 MOL       0.042367
    167 H76        -31.2440    11.0520     1.0070 h1         3 MOL       0.042700
    168 H77        -31.5310    11.0860    -0.7810 h1         3 MOL       0.042700
    169 H78        -33.4940    11.7380     1.3930 h1         3 MOL       0.042700
    170 H79        -33.7960    11.7780    -0.3920 h1         3 MOL       0.042700
    171 H80        -33.8690    14.1920    -0.3190 h1         3 MOL       0.042200
    172 H81        -33.5670    14.1520     1.4570 h1         3 MOL       0.042200
    173 H82        -35.8920    15.1520     0.0370 h1         3 MOL       0.033700
    174 H83        -35.6030    15.1160     1.8200 h1         3 MOL       0.033700
    175 H84        -37.4470    13.5210     2.0750 h1         3 MOL       0.059367
    176 H85        -37.7240    13.5580     0.3010 h1         3 MOL       0.059367
    177 H86         -9.4310    -1.5810    -1.1790 h1         3 MOL       0.065200
    178 H87         -8.7030    -1.5540    -2.8200 h1         3 MOL       0.065200
    179 H88        -10.8140    -0.5190    -3.6990 hc         3 MOL       0.044533
    180 H89        -11.5130    -0.5650    -2.0390 hc         3 MOL       0.044533
    181 H90        -11.0910    -3.0120    -1.9320 hc         3 MOL       0.043867
    182 H91        -10.4030    -2.9670    -3.5860 hc         3 MOL       0.043867
    183 H92        -12.6090    -2.2540    -4.4820 hc         3 MOL       0.040700
    184 H93        -13.2980    -2.3090    -2.8230 hc         3 MOL       0.040700
    185 H94        -12.5880    -4.6920    -2.6150 hc         3 MOL       0.040867
    186 H95        -11.9050    -4.6310    -4.2700 hc         3 MOL       0.040867
    187 H96        -14.1790    -4.2430    -5.2000 hc         3 MOL       0.039867
    188 H97        -14.8680    -4.3120    -3.5380 hc         3 MOL       0.039867
    189 H98        -13.8680    -6.5790    -3.2300 hc         3 MOL       0.040533
    190 H99        -13.1830    -6.4980    -4.8840 hc         3 MOL       0.040533
    191 H100       -15.4770    -6.4140    -5.8370 hc         3 MOL       0.039700
    192 H101       -16.1700    -6.5060    -4.1780 hc         3 MOL       0.039700
    193 H102       -14.9210    -8.6410    -3.7890 hc         3 MOL       0.042033
    194 H103       -14.2320    -8.5340    -5.4390 hc         3 MOL       0.042033
    195 H104       -16.5090    -8.7460    -6.4140 hc         3 MOL       0.040200
    196 H105       -17.2080    -8.8660    -4.7600 hc         3 MOL       0.040200
    197 H106       -15.7390   -10.8400    -4.2970 hc         3 MOL       0.055200
    198 H107       -15.0440   -10.7030    -5.9450 hc         3 MOL       0.055200
    199 H108       -17.2770   -11.1710    -6.9380 h1         3 MOL       0.027533
    200 H109       -17.9850   -11.3260    -5.2900 h1         3 MOL       0.027533
    201 H110       -17.7470   -13.4570    -7.3950 h1         3 MOL       0.039700
    202 H111       -18.4640   -13.6710    -5.7580 h1         3 MOL       0.039700
    203 H112       -16.6910   -15.2890    -5.2080 h1         3 MOL       0.042200
    204 H113       -15.9800   -15.0460    -6.8470 h1         3 MOL       0.042200
    205 H114       -17.0670   -17.4680    -5.7600 h1         3 MOL       0.042367
    206 H115       -16.3620   -17.1530    -7.3860 h1         3 MOL       0.042367
    207 H116       -18.4660   -17.6840    -8.4190 h1         3 MOL       0.042700
    208 H117       -19.1830   -18.0230    -6.7910 h1         3 MOL       0.042700
    209 H118       -18.5110   -19.9840    -8.9400 h1         3 MOL       0.042700
    210 H119       -19.2190   -20.3610    -7.3170 h1         3 MOL       0.042700
    211 H120       -17.1320   -21.3860    -6.6550 h1         3 MOL       0.042200
    212 H121       -16.4300   -21.0030    -8.2700 h1         3 MOL       0.042200
    213 H122       -16.9290   -23.6250    -7.0960 h1         3 MOL       0.033700
    214 H123       -16.2270   -23.2470    -8.7160 h1         3 MOL       0.033700
    215 H124       -18.2050   -24.2210    -9.7890 h1         3 MOL       0.059367
    216 H125       -18.8990   -24.5890    -8.1740 h1         3 MOL       0.059367
    217 H126       -16.4000   -25.5580    -9.2240 ho         3 MOL       0.398000
    218 H127        12.2850   -19.5130    -7.7400 ho         3 MOL       0.398000
    219 H128       -37.8490    15.8020     2.1000 ho         3 MOL       0.398000
@<TRIPOS>BOND
     1     1    10 1   
     2     1    13 1   
     3     1    94 1   
     4     2    11 1   
     5     2    12 1   
     6     2    95 1   
     7     3    14 1   
     8     3    15 1   
     9     3    96 1   
    10     4     5 ar  
    11     4     9 ar  
    12     4    15 1   
    13     5     6 ar  
    14     5    91 1   
    15     6     7 ar  
    16     6    11 1   
    17     7     8 ar  
    18     7    92 1   
    19     8     9 ar  
    20     8    10 1   
    21     9    93 1   
    22    10    73 2   
    23    11    74 2   
    24    12    54 1   
    25    12   177 1   
    26    12   178 1   
    27    13    35 1   
    28    13   137 1   
    29    13   138 1   
    30    14    16 1   
    31    14    97 1   
    32    14    98 1   
    33    15    75 2   
    34    16    17 1   
    35    16    99 1   
    36    16   100 1   
    37    17    18 1   
    38    17   101 1   
    39    17   102 1   
    40    18    19 1   
    41    18   103 1   
    42    18   104 1   
    43    19    20 1   
    44    19   105 1   
    45    19   106 1   
    46    20    21 1   
    47    20   107 1   
    48    20   108 1   
    49    21    22 1   
    50    21   109 1   
    51    21   110 1   
    52    22    23 1   
    53    22   111 1   
    54    22   112 1   
    55    23    24 1   
    56    23   113 1   
    57    23   114 1   
    58    24    25 1   
    59    24   115 1   
    60    24   116 1   
    61    25    26 1   
    62    25   117 1   
    63    25   118 1   
    64    26    76 1   
    65    26   119 1   
    66    26   120 1   
    67    27    28 1   
    68    27    76 1   
    69    27   121 1   
    70    27   122 1   
    71    28    77 1   
    72    28   123 1   
    73    28   124 1   
    74    29    30 1   
    75    29    77 1   
    76    29   125 1   
    77    29   126 1   
    78    30    78 1   
    79    30   127 1   
    80    30   128 1   
    81    31    32 1   
    82    31    78 1   
    83    31   129 1   
    84    31   130 1   
    85    32    79 1   
    86    32   131 1   
    87    32   132 1   
    88    33    34 1   
    89    33    79 1   
    90    33   133 1   
    91    33   134 1   
    92    34    80 1   
    93    34   135 1   
    94    34   136 1   
    95    35    36 1   
    96    35   139 1   
    97    35   140 1   
    98    36    37 1   
    99    36   141 1   
   100    36   142 1   
   101    37    38 1   
   102    37   143 1   
   103    37   144 1   
   104    38    39 1   
   105    38   145 1   
   106    38   146 1   
   107    39    40 1   
   108    39   147 1   
   109    39   148 1   
   110    40    41 1   
   111    40   149 1   
   112    40   150 1   
   113    41    42 1   
   114    41   151 1   
   115    41   152 1   
   116    42    43 1   
   117    42   153 1   
   118    42   154 1   
   119    43    44 1   
   120    43   155 1   
   121    43   156 1   
   122    44    45 1   
   123    44   157 1   
   124    44   158 1   
   125    45    81 1   
   126    45   159 1   
   127    45   160 1   
   128    46    47 1   
   129    46    81 1   
   130    46   161 1   
   131    46   162 1   
   132    47    82 1   
   133    47   163 1   
   134    47   164 1   
   135    48    49 1   
   136    48    82 1   
   137    48   165 1   
   138    48   166 1   
   139    49    83 1   
   140    49   167 1   
   141    49   168 1   
   142    50    51 1   
   143    50    83 1   
   144    50   169 1   
   145    50   170 1   
   146    51    84 1   
   147    51   171 1   
   148    51   172 1   
   149    52    53 1   
   150    52    84 1   
   151    52   173 1   
   152    52   174 1   
   153    53    85 1   
   154    53   175 1   
   155    53   176 1   
   156    54    55 1   
   157    54   179 1   
   158    54   180 1   
   159    55    56 1   
   160    55   181 1   
   161    55   182 1   
   162    56    57 1   
   163    56   183 1   
   164    56   184 1   
   165    57    58 1   
   166    57   185 1   
   167    57   186 1   
   168    58    59 1   
   169    58   187 1   
   170    58   188 1   
   171    59    60 1   
   172    59   189 1   
   173    59   190 1   
   174    60    61 1   
   175    60   191 1   
   176    60   192 1   
   177    61    62 1   
   178    61   193 1   
   179    61   194 1   
   180    62    63 1   
   181    62   195 1   
   182    62   196 1   
   183    63    64 1   
   184    63   197 1   
   185    63   198 1   
   186    64    86 1   
   187    64   199 1   
   188    64   200 1   
   189    65    66 1   
   190    65    86 1   
   191    65   201 1   
   192    65   202 1   
   193    66    87 1   
   194    66   203 1   
   195    66   204 1   
   196    67    68 1   
   197    67    87 1   
   198    67   205 1   
   199    67   206 1   
   200    68    88 1   
   201    68   207 1   
   202    68   208 1   
   203    69    70 1   
   204    69    88 1   
   205    69   209 1   
   206    69   210 1   
   207    70    89 1   
   208    70   211 1   
   209    70   212 1   
   210    71    72 1   
   211    71    89 1   
   212    71   213 1   
   213    71   214 1   
   214    72    90 1   
   215    72   215 1   
   216    72   216 1   
   217    80   218 1   
   218    85   219 1   
   219    90   217 1   
@<TRIPOS>SUBSTRUCTURE
     1 MOL         1 TEMP              0 ****  ****    0 ROOT
