@<TRIPOS>MOLECULE
MOL
  378   381     1     0     0
SMALL
bcc


@<TRIPOS>ATOM
      1 N           -7.2890     8.5640    -2.8530 n          4 MOL      -0.559233
      2 N1          -8.5120     2.5230    -4.9430 n          4 MOL      -0.559233
      3 N2          -2.5140     4.3620    -4.0410 n          4 MOL      -0.559233
      4 C           -4.7390     5.2080    -3.6090 ca         4 MOL      -0.154600
      5 C1          -5.3670     3.9730    -3.8380 ca         4 MOL      -0.038333
      6 C2          -6.7550     3.8800    -3.9830 ca         4 MOL      -0.154600
      7 C3          -7.5250     5.0470    -3.8770 ca         4 MOL      -0.038333
      8 C4          -6.9330     6.2930    -3.6300 ca         4 MOL      -0.154600
      9 C5          -5.5350     6.3570    -3.5070 ca         4 MOL      -0.038333
     10 C6          -7.8040     7.5250    -3.5210 c          4 MOL       0.669700
     11 C7          -7.3970     2.5330    -4.2040 c          4 MOL       0.669700
     12 C8          -9.2070     1.3010    -5.1760 c3         4 MOL       0.084667
     13 C9          -8.1870     9.6900    -2.5550 c3         4 MOL       0.084667
     14 C10         -1.1010     4.3470    -3.9280 c3         4 MOL       0.084667
     15 C11         -3.2410     5.3090    -3.4380 c          4 MOL       0.669700
     16 C12         -0.5960     3.0220    -4.4810 c3         4 MOL      -0.105400
     17 C13          0.9210     2.9500    -4.3830 c3         4 MOL      -0.077400
     18 C14          1.3320     1.5970    -4.9490 c3         4 MOL      -0.079067
     19 C15          2.8440     1.4170    -4.8950 c3         4 MOL      -0.079400
     20 C16          3.1370     0.0420    -5.4730 c3         4 MOL      -0.079400
     21 C17          4.6310    -0.2430    -5.4630 c3         4 MOL      -0.079400
     22 C18          4.8120    -1.6330    -6.0510 c3         4 MOL      -0.079400
     23 C19          6.2840    -2.0180    -6.0830 c3         4 MOL      -0.078400
     24 C20          6.3620    -3.4140    -6.6770 c3         4 MOL      -0.078400
     25 C21          7.8070    -3.8770    -6.7430 c3         4 MOL      -0.084400
     26 C22          7.7990    -5.2760    -7.3390 c3         4 MOL       0.132733
     27 C23          9.0630    -7.0360    -7.9570 c3         4 MOL       0.106400
     28 C24         10.4190    -7.5820    -8.0620 c3         4 MOL       0.129400
     29 C25         11.2210    -9.5260    -8.7860 c3         4 MOL       0.125400
     30 C26         10.6330   -10.7010    -9.3090 c3         4 MOL       0.129067
     31 C27         11.3530   -12.6460   -10.0250 c3         4 MOL       0.129733
     32 C28         12.6480   -13.2480   -10.1660 c3         4 MOL       0.128733
     33 C29         13.6530   -15.1120   -10.8540 c3         4 MOL       0.105733
     34 C30         13.3520   -16.4570   -11.4250 c3         4 MOL       0.084667
     35 C31         -7.4570    10.9600    -2.0910 c3         4 MOL      -0.105400
     36 C32         -8.5550    12.0040    -1.8280 c3         4 MOL      -0.077400
     37 C33         -7.9850    13.3400    -1.3430 c3         4 MOL      -0.079067
     38 C34         -9.1770    14.2600    -1.1120 c3         4 MOL      -0.079400
     39 C35         -8.7030    15.6130    -0.6170 c3         4 MOL      -0.079400
     40 C36         -9.9330    16.4810    -0.3940 c3         4 MOL      -0.079400
     41 C37         -9.4920    17.8410     0.1100 c3         4 MOL      -0.079400
     42 C38        -10.7270    18.7020     0.3390 c3         4 MOL      -0.078400
     43 C39        -10.2760    20.0580     0.8500 c3         4 MOL      -0.078400
     44 C40        -11.4950    20.9360     1.0920 c3         4 MOL      -0.084400
     45 C41        -11.0020    22.2770     1.6060 c3         4 MOL       0.132733
     46 C42        -11.6220    24.3220     2.3200 c3         4 MOL       0.106400
     47 C43        -12.7410    25.2320     2.5910 c3         4 MOL       0.129400
     48 C44        -12.8140    27.3230     3.3740 c3         4 MOL       0.125400
     49 C45        -11.8110    28.2310     3.7840 c3         4 MOL       0.129067
     50 C46        -11.6920    30.2590     4.5790 c3         4 MOL       0.129733
     51 C47        -12.6260    31.2880     4.9190 c3         4 MOL       0.128733
     52 C48        -12.6660    33.3730     5.7290 c3         4 MOL       0.105733
     53 C49        -11.7310    34.4270     6.2120 c3         4 MOL       0.084667
     54 C50        -10.7120     1.5680    -5.2570 c3         4 MOL      -0.105400
     55 C51        -11.4290     0.2440    -5.5130 c3         4 MOL      -0.077400
     56 C52        -12.9360     0.4900    -5.5930 c3         4 MOL      -0.079067
     57 C53        -13.6370    -0.8440    -5.8520 c3         4 MOL      -0.079400
     58 C54        -15.1470    -0.6240    -5.9360 c3         4 MOL      -0.079400
     59 C55        -15.8100    -1.9740    -6.2010 c3         4 MOL      -0.079400
     60 C56        -17.3260    -1.8000    -6.2960 c3         4 MOL      -0.079400
     61 C57        -17.9390    -3.1740    -6.5710 c3         4 MOL      -0.078400
     62 C58        -19.4620    -3.0710    -6.6830 c3         4 MOL      -0.078400
     63 C59        -20.0000    -4.4750    -6.9670 c3         4 MOL      -0.084400
     64 C60        -21.5260    -4.4550    -7.1010 c3         4 MOL       0.132733
     65 C61        -23.3230    -5.8610    -7.5210 c3         4 MOL       0.106400
     66 C62        -23.6310    -7.2680    -7.8160 c3         4 MOL       0.129400
     67 C63        -25.3360    -8.5650    -8.2500 c3         4 MOL       0.125400
     68 C64        -26.7470    -8.5310    -8.3920 c3         4 MOL       0.129067
     69 C65        -28.2620   -10.0670    -8.8760 c3         4 MOL       0.129733
     70 C66        -28.2120   -11.4650    -9.1790 c3         4 MOL       0.128733
     71 C67        -29.6370   -13.1100    -9.7190 c3         4 MOL       0.105733
     72 C68        -31.0990   -13.2470    -9.9190 c3         4 MOL       0.084667
     73 O           -8.9390     7.5520    -4.0040 o          4 MOL      -0.607100
     74 O1          -6.9090     1.5110    -3.7190 o          4 MOL      -0.607100
     75 O2          -2.7290     6.2180    -2.7830 o          4 MOL      -0.607100
     76 O3           9.1280    -5.7780    -7.4300 os         4 MOL      -0.425267
     77 O4          10.1510    -8.8060    -8.5870 os         4 MOL      -0.423600
     78 O5          11.6870   -11.4530    -9.5220 os         4 MOL      -0.430600
     79 O6          12.4300   -14.4670   -10.6730 os         4 MOL      -0.425933
     80 O8         -12.1090    23.1380     1.8530 os         4 MOL      -0.425267
     81 O9         -12.0550    26.3150     3.0380 os         4 MOL      -0.423600
     82 O10        -12.5020    29.2860     4.1470 os         4 MOL      -0.430600
     83 O11        -11.8680    32.2950     5.3650 os         4 MOL      -0.425933
     84 O13        -21.9510    -5.7910    -7.3750 os         4 MOL      -0.425267
     85 O14        -24.9950    -7.3230    -7.9640 os         4 MOL      -0.423600
     86 O15        -26.9730    -9.8040    -8.6820 os         4 MOL      -0.430600
     87 O16        -29.4820   -11.7770    -9.3880 os         4 MOL      -0.425933
     88 H253        -4.7780     3.0650    -3.8880 ha         4 MOL       0.160667
     89 H254        -8.6030     4.9870    -3.9680 ha         4 MOL       0.160667
     90 H255        -5.0490     7.3110    -3.3420 ha         4 MOL       0.160667
     91 H250        -6.3730     8.4520    -2.4470 hn         4 MOL       0.312167
     92 H251        -8.7520     3.3750    -5.4390 hn         4 MOL       0.312167
     93 H252        -2.9950     3.7310    -4.6600 hn         4 MOL       0.312167
     94 H6          -0.8160     4.4690    -2.8730 h1         4 MOL       0.063867
     95 H7          -0.6800     5.1830    -4.5030 h1         4 MOL       0.063867
     96 H8          -0.8960     2.9280    -5.5350 hc         4 MOL       0.046200
     97 H9          -1.0350     2.1960    -3.9020 hc         4 MOL       0.046200
     98 H10          1.2320     3.0300    -3.3320 hc         4 MOL       0.043200
     99 H11          1.3750     3.7610    -4.9690 hc         4 MOL       0.043200
    100 H12          0.9980     1.5260    -5.9940 hc         4 MOL       0.041367
    101 H13          0.8550     0.8020    -4.3590 hc         4 MOL       0.041367
    102 H14          3.1950     1.4690    -3.8540 hc         4 MOL       0.040533
    103 H15          3.3420     2.1930    -5.4940 hc         4 MOL       0.040533
    104 H16          2.7680    -0.0020    -6.5080 hc         4 MOL       0.040200
    105 H17          2.6210    -0.7200    -4.8700 hc         4 MOL       0.040200
    106 H18          5.0120    -0.2170    -4.4320 hc         4 MOL       0.040200
    107 H19          5.1610     0.5000    -6.0750 hc         4 MOL       0.040200
    108 H20          4.4120    -1.6480    -7.0750 hc         4 MOL       0.039700
    109 H21          4.2630    -2.3590    -5.4350 hc         4 MOL       0.039700
    110 H22          6.6950    -2.0210    -5.0640 hc         4 MOL       0.041867
    111 H23          6.8460    -1.3110    -6.7090 hc         4 MOL       0.041867
    112 H24          5.9380    -3.4030    -7.6910 hc         4 MOL       0.040200
    113 H25          5.7880    -4.1080    -6.0480 hc         4 MOL       0.040200
    114 H26          8.2390    -3.9020    -5.7320 hc         4 MOL       0.055533
    115 H27          8.3910    -3.1970    -7.3800 hc         4 MOL       0.055533
    116 H28          7.3510    -5.2390    -8.3440 h1         4 MOL       0.027033
    117 H29          7.2000    -5.9380    -6.6960 h1         4 MOL       0.027033
    118 H30          8.6110    -7.0030    -8.9580 h1         4 MOL       0.035200
    119 H31          8.4640    -7.6870    -7.3050 h1         4 MOL       0.035200
    120 H32         10.8920    -7.6630    -7.0700 h1         4 MOL       0.056033
    121 H33         11.0410    -6.9770    -8.7400 h1         4 MOL       0.056033
    122 H34         11.7520    -9.7400    -7.8490 h1         4 MOL       0.042533
    123 H35         11.8960    -9.0660    -9.5210 h1         4 MOL       0.042533
    124 H36         10.0950   -10.4800   -10.2420 h1         4 MOL       0.043533
    125 H37          9.9540   -11.1520    -8.5700 h1         4 MOL       0.043533
    126 H38         10.8550   -12.5480   -11.0030 h1         4 MOL       0.042700
    127 H39         10.7240   -13.2190    -9.3260 h1         4 MOL       0.042700
    128 H40         13.1360   -13.3150    -9.1840 h1         4 MOL       0.041867
    129 H41         13.2620   -12.6460   -10.8500 h1         4 MOL       0.041867
    130 H42         14.1720   -15.2200    -9.8880 h1         4 MOL       0.032867
    131 H43         14.2810   -14.5400   -11.5550 h1         4 MOL       0.032867
    132 H46         -8.7520     9.9290    -3.4680 h1         4 MOL       0.063867
    133 H48         -6.7720    11.3170    -2.8730 hc         4 MOL       0.046200
    134 H49         -6.8970    10.7610    -1.1650 hc         4 MOL       0.046200
    135 H50         -9.2380    11.6130    -1.0580 hc         4 MOL       0.043200
    136 H51         -9.1180    12.1750    -2.7570 hc         4 MOL       0.043200
    137 H52         -7.3180    13.7760    -2.1030 hc         4 MOL       0.041367
    138 H53         -7.4360    13.2030    -0.3990 hc         4 MOL       0.041367
    139 H54         -9.8410    13.8120    -0.3590 hc         4 MOL       0.040533
    140 H55         -9.7290    14.3890    -2.0550 hc         4 MOL       0.040533
    141 H56         -8.0470    16.0780    -1.3660 hc         4 MOL       0.040200
    142 H57         -8.1580    15.4930     0.3300 hc         4 MOL       0.040200
    143 H58        -10.5860    16.0070     0.3520 hc         4 MOL       0.040200
    144 H59        -10.4800    16.5970    -1.3410 hc         4 MOL       0.040200
    145 H60         -8.8390    18.3180    -0.6350 hc         4 MOL       0.039700
    146 H61         -8.9450    17.7220     1.0570 hc         4 MOL       0.039700
    147 H62        -11.3790    18.2250     1.0850 hc         4 MOL       0.041867
    148 H63        -11.2760    18.8250    -0.6050 hc         4 MOL       0.041867
    149 H64         -9.6230    20.5330     0.1050 hc         4 MOL       0.040200
    150 H65         -9.7260    19.9290     1.7920 hc         4 MOL       0.040200
    151 H66        -12.1490    20.4650     1.8410 hc         4 MOL       0.055533
    152 H67        -12.0480    21.0730     0.1510 hc         4 MOL       0.055533
    153 H68        -10.3400    22.7340     0.8540 h1         4 MOL       0.027033
    154 H69        -10.4410    22.1210     2.5400 h1         4 MOL       0.027033
    155 H70        -10.9610    24.7780     1.5710 h1         4 MOL       0.035200
    156 H71        -11.0630    24.1550     3.2510 h1         4 MOL       0.035200
    157 H72        -13.4070    24.8240     3.3680 h1         4 MOL       0.056033
    158 H73        -13.3060    25.4570     1.6720 h1         4 MOL       0.056033
    159 H74        -13.4840    27.0750     4.2090 h1         4 MOL       0.042533
    160 H75        -13.3810    27.7190     2.5210 h1         4 MOL       0.042533
    161 H76        -11.1370    28.4570     2.9440 h1         4 MOL       0.043533
    162 H77        -11.2420    27.8110     4.6270 h1         4 MOL       0.043533
    163 H78        -11.0100    30.5980     3.7840 h1         4 MOL       0.042700
    164 H79        -11.1220    29.9430     5.4660 h1         4 MOL       0.042700
    165 H80        -13.3080    30.9320     5.7030 h1         4 MOL       0.041867
    166 H81        -13.1950    31.5870     4.0280 h1         4 MOL       0.041867
    167 H82        -13.3580    33.0820     6.5340 h1         4 MOL       0.032867
    168 H83        -13.2340    33.7380     4.8580 h1         4 MOL       0.032867
    169 H86         -8.9810     0.5920    -4.3650 h1         4 MOL       0.063867
    170 H87         -8.8730     0.8740    -6.1310 h1         4 MOL       0.063867
    171 H88        -10.9210     2.2660    -6.0800 hc         4 MOL       0.046200
    172 H89        -11.0620     2.0010    -4.3080 hc         4 MOL       0.046200
    173 H90        -11.2140    -0.4530    -4.6900 hc         4 MOL       0.043200
    174 H91        -11.0740    -0.1860    -6.4590 hc         4 MOL       0.043200
    175 H92        -13.1530     1.1880    -6.4140 hc         4 MOL       0.041367
    176 H93        -13.2920     0.9170    -4.6440 hc         4 MOL       0.041367
    177 H94        -13.4150    -1.5410    -5.0320 hc         4 MOL       0.040533
    178 H95        -13.2770    -1.2670    -6.8010 hc         4 MOL       0.040533
    179 H96        -15.3770     0.0690    -6.7580 hc         4 MOL       0.040200
    180 H97        -15.5160    -0.2080    -4.9880 hc         4 MOL       0.040200
    181 H98        -15.5730    -2.6660    -5.3810 hc         4 MOL       0.040200
    182 H99        -15.4320    -2.3840    -7.1480 hc         4 MOL       0.040200
    183 H100       -17.5690    -1.1110    -7.1180 hc         4 MOL       0.039700
    184 H101       -17.7140    -1.3970    -5.3490 hc         4 MOL       0.039700
    185 H102       -17.6820    -3.8590    -5.7500 hc         4 MOL       0.041867
    186 H103       -17.5350    -3.5680    -7.5140 hc         4 MOL       0.041867
    187 H104       -19.7300    -2.3950    -7.5070 hc         4 MOL       0.040200
    188 H105       -19.8830    -2.6910    -5.7410 hc         4 MOL       0.040200
    189 H106       -19.7160    -5.1450    -6.1430 hc         4 MOL       0.055533
    190 H107       -19.5600    -4.8430    -7.9060 hc         4 MOL       0.055533
    191 H108       -21.8190    -3.7930    -7.9300 h1         4 MOL       0.027033
    192 H109       -21.9810    -4.1000    -6.1640 h1         4 MOL       0.027033
    193 H110       -23.6550    -5.2290    -8.3560 h1         4 MOL       0.035200
    194 H111       -23.8280    -5.5550    -6.5950 h1         4 MOL       0.035200
    195 H112       -23.3060    -7.9120    -6.9830 h1         4 MOL       0.056033
    196 H113       -23.1300    -7.5760    -8.7470 h1         4 MOL       0.056033
    197 H114       -25.0570    -9.2490    -7.4380 h1         4 MOL       0.042533
    198 H115       -24.8750    -8.8910    -9.1940 h1         4 MOL       0.042533
    199 H116       -27.0450    -7.8650    -9.2150 h1         4 MOL       0.043533
    200 H117       -27.2330    -8.2300    -7.4520 h1         4 MOL       0.043533
    201 H118       -28.6690    -9.5000    -9.7270 h1         4 MOL       0.042700
    202 H119       -28.8570    -9.8830    -7.9690 h1         4 MOL       0.042700
    203 H120       -27.7950   -12.0260    -8.3310 h1         4 MOL       0.041867
    204 H121       -27.6070   -11.6340   -10.0810 h1         4 MOL       0.041867
    205 H122       -29.2900   -13.7610    -8.9000 h1         4 MOL       0.032867
    206 H123       -29.0950   -13.3460   -10.6490 h1         4 MOL       0.032867
    207 H127        -8.8930     9.3740    -1.7740 h1         4 MOL       0.063867
    208 N3          14.5680   -17.1270   -11.6270 n          4 MOL      -0.572567
    209 H128        12.8230   -16.3570   -12.3830 h1         4 MOL       0.076200
    210 H129        12.7190   -17.0350   -10.7370 h1         4 MOL       0.076200
    211 C69         14.5830   -18.3490   -12.1520 c          4 MOL       0.657100
    212 H130        15.4250   -16.6860   -11.3820 hn         4 MOL       0.307833
    213 O17         13.5240   -18.9050   -12.4610 o          4 MOL      -0.602433
    214 C70         15.8970   -19.0450   -12.3690 c3         4 MOL      -0.159400
    215 C71         15.6950   -20.4910   -12.8240 c3         4 MOL       0.139733
    216 H131        16.4830   -18.9980   -11.4380 hc         4 MOL       0.079200
    217 H132        16.4650   -18.4850   -13.1280 hc         4 MOL       0.079200
    218 O18         16.9920   -21.0770   -13.0200 os         4 MOL      -0.433267
    219 H133        15.1410   -21.0460   -12.0540 h1         4 MOL       0.044033
    220 H134        15.1290   -20.5040   -13.7670 h1         4 MOL       0.044033
    221 C72         16.8870   -22.3890   -13.4310 c3         4 MOL       0.129067
    222 C73         18.2650   -22.8530   -13.6070 c3         4 MOL       0.128400
    223 H135        16.3800   -22.9960   -12.6690 h1         4 MOL       0.044367
    224 H136        16.3470   -22.4540   -14.3860 h1         4 MOL       0.044367
    225 O19         18.1830   -24.1560   -14.0180 os         4 MOL      -0.430933
    226 H137        18.7690   -22.2410   -14.3730 h1         4 MOL       0.043700
    227 H138        18.8120   -22.7840   -12.6540 h1         4 MOL       0.043700
    228 C74         19.4190   -24.5790   -14.2040 c3         4 MOL       0.118067
    229 C75         19.3340   -25.9400   -14.6300 c3         4 MOL       0.128400
    230 H139        19.9940   -24.5220   -13.2680 h1         4 MOL       0.041867
    231 H140        19.9160   -23.9820   -14.9830 h1         4 MOL       0.041867
    232 O20         20.6360   -26.1640   -14.7690 os         4 MOL      -0.429600
    233 H141        18.8790   -26.5760   -13.8560 h1         4 MOL       0.048700
    234 H142        18.7920   -26.0290   -15.5840 h1         4 MOL       0.048700
    235 C76         20.9710   -27.3930   -15.1730 c3         4 MOL       0.115733
    236 C77         22.3950   -27.2300   -15.2270 c3         4 MOL       0.121067
    237 H143        20.5670   -27.6310   -16.1680 h1         4 MOL       0.048367
    238 H144        20.6870   -28.1620   -14.4400 h1         4 MOL       0.048367
    239 O21         22.7880   -28.3760   -15.6090 os         4 MOL      -0.424600
    240 H145        22.6670   -26.4580   -15.9500 h1         4 MOL       0.059033
    241 H146        22.7910   -26.9910   -14.2370 h1         4 MOL       0.059033
    242 C78         24.1220   -28.4760   -15.7360 c3         4 MOL       0.107733
    243 C79         24.1340   -29.8880   -16.1110 c3         4 MOL       0.178467
    244 H147        24.5180   -27.8080   -16.5330 h1         4 MOL       0.060533
    245 H148        24.6430   -28.2970   -14.7770 h1         4 MOL       0.060533
    246 N4          25.3820   -30.3730   -16.3220 nh         4 MOL      -0.736933
    247 H149        23.6560   -30.4680   -15.3100 h1         4 MOL       0.075700
    248 H150        23.5350   -30.0180   -17.0250 h1         4 MOL       0.075700
    249 H151        26.1220   -29.7180   -16.3330 hn         4 MOL       0.443467
    250 N5         -12.4770    35.5490     6.5980 n          4 MOL      -0.572567
    251 H152       -11.0240    34.7100     5.4200 h1         4 MOL       0.076200
    252 H153       -11.1570    34.0530     7.0720 h1         4 MOL       0.076200
    253 C80        -11.8550    36.6780     6.9290 c          4 MOL       0.657100
    254 H154       -13.4710    35.5060     6.6210 hn         4 MOL       0.307833
    255 O22        -10.6210    36.7320     6.8960 o          4 MOL      -0.602433
    256 C81        -12.6500    37.8920     7.3330 c3         4 MOL      -0.159400
    257 C82        -11.7300    39.0980     7.5020 c3         4 MOL       0.139733
    258 H155       -13.1750    37.6740     8.2760 hc         4 MOL       0.079200
    259 H156       -13.4240    38.0810     6.5730 hc         4 MOL       0.079200
    260 O23        -12.5130    40.2420     7.8850 os         4 MOL      -0.433267
    261 H157       -10.9830    38.8760     8.2790 h1         4 MOL       0.044033
    262 H158       -11.2180    39.2980     6.5500 h1         4 MOL       0.044033
    263 C83        -11.6900    41.3140     8.0370 c3         4 MOL       0.129067
    264 C84        -12.5190    42.4610     8.4070 c3         4 MOL       0.128400
    265 H159       -10.9540    41.1230     8.8300 h1         4 MOL       0.044367
    266 H160       -11.1690    41.5320     7.0940 h1         4 MOL       0.044367
    267 O24        -11.5880    43.4380     8.5220 os         4 MOL      -0.430933
    268 H161       -13.0370    42.2820     9.3630 h1         4 MOL       0.043700
    269 H162       -13.2470    42.6930     7.6120 h1         4 MOL       0.043700
    270 C85        -12.1220    44.5990     8.8460 c3         4 MOL       0.118067
    271 C86        -10.9950    45.4210     8.8930 c3         4 MOL       0.128400
    272 H163       -12.6170    44.5550     9.8270 h1         4 MOL       0.041867
    273 H164       -12.8250    44.9470     8.0760 h1         4 MOL       0.041867
    274 O25        -11.5530    46.5580     9.2240 os         4 MOL      -0.429600
    275 H165       -10.3210    45.0480     9.6770 h1         4 MOL       0.048700
    276 H166       -10.4750    45.4750     7.9260 h1         4 MOL       0.048700
    277 C87        -10.6230    47.4600     9.6110 c3         4 MOL       0.115733
    278 C88        -11.4350    48.5970    10.1360 c3         4 MOL       0.121067
    279 H167       -10.0380    47.0240    10.4370 h1         4 MOL       0.048367
    280 H168        -9.9530    47.7640     8.7900 h1         4 MOL       0.048367
    281 O26        -10.5490    49.5130    10.7740 os         4 MOL      -0.424600
    282 H169       -12.0190    49.0680     9.3370 h1         4 MOL       0.059033
    283 H170       -12.1160    48.1940    10.9030 h1         4 MOL       0.059033
    284 C89        -11.3000    50.5690    11.4480 c3         4 MOL       0.107733
    285 N6         -31.4200   -14.5560   -10.2740 n          4 MOL      -0.572567
    286 H171       -31.4330   -12.5660   -10.7130 h1         4 MOL       0.076200
    287 H172       -31.6310   -12.9810    -8.9960 h1         4 MOL       0.076200
    288 C90        -32.6900   -14.8620   -10.5130 c          4 MOL       0.657100
    289 H173       -30.7130   -15.2510   -10.3530 hn         4 MOL       0.307833
    290 O27        -33.5550   -13.9850   -10.4110 o          4 MOL      -0.602433
    291 C91        -33.0900   -16.2530   -10.9070 c3         4 MOL      -0.159400
    292 C92        -34.6130   -16.3580   -10.8770 c3         4 MOL       0.139733
    293 H174       -32.6130   -16.9790   -10.2310 hc         4 MOL       0.079200
    294 H175       -32.7130   -16.4570   -11.9220 hc         4 MOL       0.079200
    295 O28        -35.0280   -17.6750   -11.2720 os         4 MOL      -0.433267
    296 H176       -35.0350   -15.6160   -11.5710 h1         4 MOL       0.044033
    297 H177       -34.9670   -16.1450    -9.8580 h1         4 MOL       0.044033
    298 C93        -36.4020   -17.7320   -11.2250 c3         4 MOL       0.129067
    299 C94        -36.8130   -19.0720   -11.6510 c3         4 MOL       0.128400
    300 H178       -36.8370   -16.9870   -11.9060 h1         4 MOL       0.044367
    301 H179       -36.7550   -17.5490   -10.2020 h1         4 MOL       0.044367
    302 O29        -38.1760   -19.0220   -11.5640 os         4 MOL      -0.430933
    303 H180       -36.4900   -19.2650   -12.6870 h1         4 MOL       0.043700
    304 H181       -36.4030   -19.8390   -10.9750 h1         4 MOL       0.043700
    305 C95        -38.6910   -20.1720   -11.9400 c3         4 MOL       0.118067
    306 C96        -40.0960   -19.9940   -11.7830 c3         4 MOL       0.128400
    307 H182       -38.4520   -20.3880   -12.9910 h1         4 MOL       0.041867
    308 H183       -38.3440   -20.9930   -11.2970 h1         4 MOL       0.041867
    309 O30        -40.5010   -21.1810   -12.1870 os         4 MOL      -0.429600
    310 H184       -40.3550   -19.8030   -10.7320 h1         4 MOL       0.048700
    311 H185       -40.4690   -19.1880   -12.4320 h1         4 MOL       0.048700
    312 C97        -41.8290   -21.3580   -12.1490 c3         4 MOL       0.115733
    313 C98        -41.8880   -22.7010   -12.6480 c3         4 MOL       0.121067
    314 H186       -42.3500   -20.6480   -12.8060 h1         4 MOL       0.048367
    315 H187       -42.2200   -21.2970   -11.1260 h1         4 MOL       0.048367
    316 O31        -43.1850   -23.0190   -12.6520 os         4 MOL      -0.424600
    317 H188       -41.4690   -22.7180   -13.6660 h1         4 MOL       0.059033
    318 H189       -41.3170   -23.3770   -11.9950 h1         4 MOL       0.059033
    319 C99        -43.4100   -24.2750   -13.2350 c3         4 MOL       0.107733
    320 C100       -44.9170   -24.4200   -13.2200 c3         4 MOL       0.178467
    321 H190       -43.0390   -24.2730   -14.2720 h1         4 MOL       0.060533
    322 H191       -42.9250   -25.0790   -12.6610 h1         4 MOL       0.060533
    323 N7         -45.3710   -25.6690   -13.8570 nh         4 MOL      -0.736933
    324 H192       -45.2350   -24.4050   -12.1650 h1         4 MOL       0.075700
    325 H193       -45.3380   -23.5670   -13.7400 h1         4 MOL       0.075700
    326 H194       -45.3160   -26.5120   -13.2970 hn         4 MOL       0.443467
    327 C101        25.6880   -31.7380   -16.5070 ca         4 MOL       0.303600
    328 C102        24.7470   -32.9910   -16.5370 ca         4 MOL      -0.277200
    329 C103        25.2860   -34.1610   -16.7270 ca         4 MOL       0.037000
    330 H195        24.6840   -35.0400   -16.7540 ha         4 MOL       0.197333
    331 C104        26.6280   -34.2610   -16.8900 ca         4 MOL      -0.254533
    332 C105        27.4610   -33.2360   -16.8740 ca         4 MOL       0.007333
    333 H196        28.5050   -33.3980   -17.0100 ha         4 MOL       0.178000
    334 C106        26.9760   -31.9420   -16.6770 ca         4 MOL      -0.237667
    335 H197        27.6360   -31.1340   -16.6630 ha         4 MOL       0.154667
    336 N8          27.1040   -35.3730   -17.0650 no         4 MOL       0.327533
    337 O32         28.3680   -35.4430   -17.2150 o          4 MOL      -0.208167
    338 O33         26.4600   -36.3510   -17.0990 o          4 MOL      -0.208167
    339 N9          23.3950   -33.0590   -16.3910 no         4 MOL       0.318533
    340 O34         22.7850   -34.2100   -16.4570 o          4 MOL      -0.206833
    341 O35         22.7520   -32.1120   -16.2010 o          4 MOL      -0.206833
    342 C107       -46.0580   -25.7470   -15.1490 ca         4 MOL       0.303600
    343 C108       -46.6940   -26.9880   -15.4000 ca         4 MOL      -0.237667
    344 H198       -46.6490   -27.7620   -14.6970 ha         4 MOL       0.154667
    345 C109       -47.3390   -27.1630   -16.5250 ca         4 MOL       0.007333
    346 H199       -47.8080   -28.0760   -16.7220 ha         4 MOL       0.178000
    347 C110       -47.4070   -26.1070   -17.4880 ca         4 MOL      -0.254533
    348 C111       -46.8500   -24.9660   -17.2980 ca         4 MOL       0.037000
    349 H200       -46.9110   -24.2000   -18.0350 ha         4 MOL       0.197333
    350 C112       -46.1490   -24.7800   -16.1080 ca         4 MOL      -0.277200
    351 N10        -48.0300   -26.3710   -18.5160 no         4 MOL       0.327533
    352 O36        -48.2720   -25.5900   -19.5980 o          4 MOL      -0.208167
    353 O37        -48.4360   -27.4400   -18.5430 o          4 MOL      -0.208167
    354 N11        -45.5690   -23.6590   -16.0290 no         4 MOL       0.318533
    355 O38        -46.1570   -22.6720   -15.4000 o          4 MOL      -0.206833
    356 O39        -44.3940   -23.6640   -15.9850 o          4 MOL      -0.206833
    357 C113       -10.0870    51.1510    12.2630 c3         4 MOL       0.178467
    358 H201       -12.0740    50.1850    12.0790 h1         4 MOL       0.060533
    359 H202       -11.8400    51.2530    10.8270 h1         4 MOL       0.060533
    360 N12        -10.5340    52.3380    13.0580 nh         4 MOL      -0.736933
    361 H203        -9.7350    50.4140    12.9850 h1         4 MOL       0.075700
    362 H204        -9.2740    51.4140    11.5860 h1         4 MOL       0.075700
    363 H205       -10.1350    53.2430    12.8070 hn         4 MOL       0.443467
    364 C114       -11.4180    52.2920    14.1370 ca         4 MOL       0.303600
    365 C115       -11.9870    51.0350    14.6730 ca         4 MOL      -0.277200
    366 C116       -12.8350    51.0870    15.6830 ca         4 MOL       0.037000
    367 H206       -13.2660    50.1980    16.0860 ha         4 MOL       0.197333
    368 C117       -13.1760    52.3570    16.2410 ca         4 MOL      -0.254533
    369 C118       -12.6700    53.4850    15.7910 ca         4 MOL       0.007333
    370 H207       -12.9530    54.4050    16.2360 ha         4 MOL       0.178000
    371 C119       -11.7530    53.4550    14.6950 ca         4 MOL      -0.237667
    372 H208       -11.3560    54.3550    14.3270 ha         4 MOL       0.154667
    373 N13        -14.0050    52.3910    17.2030 no         4 MOL       0.327533
    374 O40        -14.5290    51.2750    17.6360 o          4 MOL      -0.208167
    375 O41        -14.3020    53.4210    17.6710 o          4 MOL      -0.208167
    376 N14        -11.6180    49.6860    14.0780 no         4 MOL       0.318533
    377 O42        -10.7200    49.6130    13.1060 o          4 MOL      -0.206833
    378 O43        -12.1300    48.7070    14.4800 o          4 MOL      -0.206833
@<TRIPOS>BOND
     1     1    10 1   
     2     1    13 1   
     3     1    91 1   
     4     2    11 1   
     5     2    12 1   
     6     2    92 1   
     7     3    14 1   
     8     3    15 1   
     9     3    93 1   
    10     4     5 ar  
    11     4     9 ar  
    12     4    15 1   
    13     5     6 ar  
    14     5    88 1   
    15     6     7 ar  
    16     6    11 1   
    17     7     8 ar  
    18     7    89 1   
    19     8     9 ar  
    20     8    10 1   
    21     9    90 1   
    22    10    73 2   
    23    11    74 2   
    24    12    54 1   
    25    12   169 1   
    26    12   170 1   
    27    13    35 1   
    28    13   132 1   
    29    13   207 1   
    30    14    16 1   
    31    14    94 1   
    32    14    95 1   
    33    15    75 2   
    34    16    17 1   
    35    16    96 1   
    36    16    97 1   
    37    17    18 1   
    38    17    98 1   
    39    17    99 1   
    40    18    19 1   
    41    18   100 1   
    42    18   101 1   
    43    19    20 1   
    44    19   102 1   
    45    19   103 1   
    46    20    21 1   
    47    20   104 1   
    48    20   105 1   
    49    21    22 1   
    50    21   106 1   
    51    21   107 1   
    52    22    23 1   
    53    22   108 1   
    54    22   109 1   
    55    23    24 1   
    56    23   110 1   
    57    23   111 1   
    58    24    25 1   
    59    24   112 1   
    60    24   113 1   
    61    25    26 1   
    62    25   114 1   
    63    25   115 1   
    64    26    76 1   
    65    26   116 1   
    66    26   117 1   
    67    27    28 1   
    68    27    76 1   
    69    27   118 1   
    70    27   119 1   
    71    28    77 1   
    72    28   120 1   
    73    28   121 1   
    74    29    30 1   
    75    29    77 1   
    76    29   122 1   
    77    29   123 1   
    78    30    78 1   
    79    30   124 1   
    80    30   125 1   
    81    31    32 1   
    82    31    78 1   
    83    31   126 1   
    84    31   127 1   
    85    32    79 1   
    86    32   128 1   
    87    32   129 1   
    88    33    34 1   
    89    33    79 1   
    90    33   130 1   
    91    33   131 1   
    92    34   208 1   
    93    34   209 1   
    94    34   210 1   
    95    35    36 1   
    96    35   133 1   
    97    35   134 1   
    98    36    37 1   
    99    36   135 1   
   100    36   136 1   
   101    37    38 1   
   102    37   137 1   
   103    37   138 1   
   104    38    39 1   
   105    38   139 1   
   106    38   140 1   
   107    39    40 1   
   108    39   141 1   
   109    39   142 1   
   110    40    41 1   
   111    40   143 1   
   112    40   144 1   
   113    41    42 1   
   114    41   145 1   
   115    41   146 1   
   116    42    43 1   
   117    42   147 1   
   118    42   148 1   
   119    43    44 1   
   120    43   149 1   
   121    43   150 1   
   122    44    45 1   
   123    44   151 1   
   124    44   152 1   
   125    45    80 1   
   126    45   153 1   
   127    45   154 1   
   128    46    47 1   
   129    46    80 1   
   130    46   155 1   
   131    46   156 1   
   132    47    81 1   
   133    47   157 1   
   134    47   158 1   
   135    48    49 1   
   136    48    81 1   
   137    48   159 1   
   138    48   160 1   
   139    49    82 1   
   140    49   161 1   
   141    49   162 1   
   142    50    51 1   
   143    50    82 1   
   144    50   163 1   
   145    50   164 1   
   146    51    83 1   
   147    51   165 1   
   148    51   166 1   
   149    52    53 1   
   150    52    83 1   
   151    52   167 1   
   152    52   168 1   
   153    53   250 1   
   154    53   251 1   
   155    53   252 1   
   156    54    55 1   
   157    54   171 1   
   158    54   172 1   
   159    55    56 1   
   160    55   173 1   
   161    55   174 1   
   162    56    57 1   
   163    56   175 1   
   164    56   176 1   
   165    57    58 1   
   166    57   177 1   
   167    57   178 1   
   168    58    59 1   
   169    58   179 1   
   170    58   180 1   
   171    59    60 1   
   172    59   181 1   
   173    59   182 1   
   174    60    61 1   
   175    60   183 1   
   176    60   184 1   
   177    61    62 1   
   178    61   185 1   
   179    61   186 1   
   180    62    63 1   
   181    62   187 1   
   182    62   188 1   
   183    63    64 1   
   184    63   189 1   
   185    63   190 1   
   186    64    84 1   
   187    64   191 1   
   188    64   192 1   
   189    65    66 1   
   190    65    84 1   
   191    65   193 1   
   192    65   194 1   
   193    66    85 1   
   194    66   195 1   
   195    66   196 1   
   196    67    68 1   
   197    67    85 1   
   198    67   197 1   
   199    67   198 1   
   200    68    86 1   
   201    68   199 1   
   202    68   200 1   
   203    69    70 1   
   204    69    86 1   
   205    69   201 1   
   206    69   202 1   
   207    70    87 1   
   208    70   203 1   
   209    70   204 1   
   210    71    72 1   
   211    71    87 1   
   212    71   205 1   
   213    71   206 1   
   214    72   285 1   
   215    72   286 1   
   216    72   287 1   
   217   208   211 1   
   218   208   212 1   
   219   211   213 2   
   220   211   214 1   
   221   214   215 1   
   222   214   216 1   
   223   214   217 1   
   224   215   218 1   
   225   215   219 1   
   226   215   220 1   
   227   218   221 1   
   228   221   222 1   
   229   221   223 1   
   230   221   224 1   
   231   222   225 1   
   232   222   226 1   
   233   222   227 1   
   234   225   228 1   
   235   228   229 1   
   236   228   230 1   
   237   228   231 1   
   238   229   232 1   
   239   229   233 1   
   240   229   234 1   
   241   232   235 1   
   242   235   236 1   
   243   235   237 1   
   244   235   238 1   
   245   236   239 1   
   246   236   240 1   
   247   236   241 1   
   248   239   242 1   
   249   242   243 1   
   250   242   244 1   
   251   242   245 1   
   252   243   246 1   
   253   243   247 1   
   254   243   248 1   
   255   246   249 1   
   256   246   327 1   
   257   250   253 1   
   258   250   254 1   
   259   253   255 2   
   260   253   256 1   
   261   256   257 1   
   262   256   258 1   
   263   256   259 1   
   264   257   260 1   
   265   257   261 1   
   266   257   262 1   
   267   260   263 1   
   268   263   264 1   
   269   263   265 1   
   270   263   266 1   
   271   264   267 1   
   272   264   268 1   
   273   264   269 1   
   274   267   270 1   
   275   270   271 1   
   276   270   272 1   
   277   270   273 1   
   278   271   274 1   
   279   271   275 1   
   280   271   276 1   
   281   274   277 1   
   282   277   278 1   
   283   277   279 1   
   284   277   280 1   
   285   278   281 1   
   286   278   282 1   
   287   278   283 1   
   288   281   284 1   
   289   284   357 1   
   290   284   358 1   
   291   284   359 1   
   292   285   288 1   
   293   285   289 1   
   294   288   290 2   
   295   288   291 1   
   296   291   292 1   
   297   291   293 1   
   298   291   294 1   
   299   292   295 1   
   300   292   296 1   
   301   292   297 1   
   302   295   298 1   
   303   298   299 1   
   304   298   300 1   
   305   298   301 1   
   306   299   302 1   
   307   299   303 1   
   308   299   304 1   
   309   302   305 1   
   310   305   306 1   
   311   305   307 1   
   312   305   308 1   
   313   306   309 1   
   314   306   310 1   
   315   306   311 1   
   316   309   312 1   
   317   312   313 1   
   318   312   314 1   
   319   312   315 1   
   320   313   316 1   
   321   313   317 1   
   322   313   318 1   
   323   316   319 1   
   324   319   320 1   
   325   319   321 1   
   326   319   322 1   
   327   320   323 1   
   328   320   324 1   
   329   320   325 1   
   330   323   326 1   
   331   323   342 1   
   332   327   328 ar  
   333   327   334 ar  
   334   328   329 ar  
   335   328   339 1   
   336   329   330 1   
   337   329   331 ar  
   338   331   332 ar  
   339   331   336 1   
   340   332   333 1   
   341   332   334 ar  
   342   334   335 1   
   343   336   337 1   
   344   336   338 1   
   345   339   340 1   
   346   339   341 1   
   347   342   343 ar  
   348   342   350 ar  
   349   343   344 1   
   350   343   345 ar  
   351   345   346 1   
   352   345   347 ar  
   353   347   348 ar  
   354   347   351 1   
   355   348   349 1   
   356   348   350 ar  
   357   350   354 1   
   358   351   352 1   
   359   351   353 1   
   360   354   355 1   
   361   354   356 1   
   362   357   360 1   
   363   357   361 1   
   364   357   362 1   
   365   360   363 1   
   366   360   364 1   
   367   364   365 ar  
   368   364   371 ar  
   369   365   366 ar  
   370   365   376 1   
   371   366   367 1   
   372   366   368 ar  
   373   368   369 ar  
   374   368   373 1   
   375   369   370 1   
   376   369   371 ar  
   377   371   372 1   
   378   373   374 1   
   379   373   375 1   
   380   376   377 1   
   381   376   378 1   
@<TRIPOS>SUBSTRUCTURE
     1 MOL         1 TEMP              0 ****  ****    0 ROOT
