@<TRIPOS>MOLECULE
MOL
  219   219     1     0     0
SMALL
bcc


@<TRIPOS>ATOM
      1 N           -7.2890     8.5640    -2.8530 n          4 MOL      -0.559233
      2 N1          -8.5120     2.5230    -4.9430 n          4 MOL      -0.559233
      3 N2          -2.5140     4.3620    -4.0410 n          4 MOL      -0.559233
      4 C           -4.7390     5.2080    -3.6090 ca         4 MOL      -0.154600
      5 C1          -5.3670     3.9730    -3.8380 ca         4 MOL      -0.038333
      6 C2          -6.7550     3.8800    -3.9830 ca         4 MOL      -0.154600
      7 C3          -7.5250     5.0470    -3.8770 ca         4 MOL      -0.038333
      8 C4          -6.9330     6.2930    -3.6300 ca         4 MOL      -0.154600
      9 C5          -5.5350     6.3570    -3.5070 ca         4 MOL      -0.038333
     10 C6          -7.8040     7.5250    -3.5210 c          4 MOL       0.669367
     11 C7          -7.3970     2.5330    -4.2040 c          4 MOL       0.669367
     12 C8          -9.2110     1.3000    -5.1760 c3         4 MOL       0.084667
     13 C9          -8.2060     9.6870    -2.5460 c3         4 MOL       0.084667
     14 C10         -1.0920     4.3400    -3.9280 c3         4 MOL       0.084667
     15 C11         -3.2410     5.3090    -3.4380 c          4 MOL       0.669367
     16 C12         -0.5810     3.0080    -4.4870 c3         4 MOL      -0.105067
     17 C13          0.9460     2.9260    -4.3900 c3         4 MOL      -0.077400
     18 C14          1.3600     1.5650    -4.9610 c3         4 MOL      -0.079067
     19 C15          2.8810     1.3690    -4.9080 c3         4 MOL      -0.079400
     20 C16          3.1710    -0.0150    -5.4930 c3         4 MOL      -0.079400
     21 C17          4.6720    -0.3190    -5.4840 c3         4 MOL      -0.079400
     22 C18          4.8460    -1.7190    -6.0800 c3         4 MOL      -0.079400
     23 C19          6.3220    -2.1290    -6.1140 c3         4 MOL      -0.078400
     24 C20          6.3910    -3.5330    -6.7170 c3         4 MOL      -0.078400
     25 C21          7.8400    -4.0190    -6.7830 c3         4 MOL      -0.084400
     26 C22          7.8300    -5.4260    -7.3900 c3         4 MOL       0.133400
     27 C23          9.1000    -7.2090    -8.0240 c3         4 MOL       0.128400
     28 C24         10.4630    -7.7630    -8.1220 c3         4 MOL       0.130400
     29 C25         11.3160    -9.6970    -8.8540 c3         4 MOL       0.130400
     30 C26         10.7800   -10.8880    -9.4100 c3         4 MOL       0.129400
     31 C27         11.5540   -12.8070   -10.1370 c3         4 MOL       0.130400
     32 C28         12.8390   -13.4180   -10.2620 c3         4 MOL       0.128400
     33 C29         13.7100   -15.3390   -10.9550 c3         4 MOL       0.094400
     34 C30         13.2190   -16.6170   -11.5100 c3         4 MOL       0.125400
     35 C31         -7.5090    10.9860    -2.0900 c3         4 MOL      -0.105067
     36 C32         -8.6420    12.0050    -1.8200 c3         4 MOL      -0.077400
     37 C33         -8.1150    13.3700    -1.3430 c3         4 MOL      -0.079067
     38 C34         -9.3360    14.2640    -1.0990 c3         4 MOL      -0.079400
     39 C35         -8.8890    15.6380    -0.6120 c3         4 MOL      -0.079400
     40 C36        -10.1320    16.4950    -0.3660 c3         4 MOL      -0.079400
     41 C37         -9.6910    17.8680     0.1290 c3         4 MOL      -0.079400
     42 C38        -10.9220    18.7410     0.3930 c3         4 MOL      -0.078400
     43 C39        -10.4450    20.1010     0.8910 c3         4 MOL      -0.078400
     44 C40        -11.6450    21.0030     1.1760 c3         4 MOL      -0.084400
     45 C41        -11.1100    22.3460     1.6730 c3         4 MOL       0.133400
     46 C42        -11.6580    24.4250     2.4030 c3         4 MOL       0.128400
     47 C43        -12.7470    25.3660     2.7180 c3         4 MOL       0.130400
     48 C44        -12.7760    27.4760     3.4760 c3         4 MOL       0.130400
     49 C45        -11.7640    28.4060     3.8250 c3         4 MOL       0.129400
     50 C46        -11.6420    30.4640     4.5540 c3         4 MOL       0.130400
     51 C47        -12.5630    31.4950     4.9030 c3         4 MOL       0.128400
     52 C48        -12.5050    33.5830     5.6590 c3         4 MOL       0.094400
     53 C49        -11.4720    34.5640     6.0440 c3         4 MOL       0.125400
     54 C50        -10.7190     1.5680    -5.2530 c3         4 MOL      -0.105067
     55 C51        -11.4420     0.2430    -5.5090 c3         4 MOL      -0.077400
     56 C52        -12.9540     0.4900    -5.5860 c3         4 MOL      -0.079067
     57 C53        -13.6600    -0.8450    -5.8460 c3         4 MOL      -0.079400
     58 C54        -15.1750    -0.6270    -5.9270 c3         4 MOL      -0.079400
     59 C55        -15.8410    -1.9800    -6.1920 c3         4 MOL      -0.079400
     60 C56        -17.3620    -1.8110    -6.2850 c3         4 MOL      -0.079400
     61 C57        -17.9750    -3.1910    -6.5610 c3         4 MOL      -0.078400
     62 C58        -19.5040    -3.0960    -6.6730 c3         4 MOL      -0.078400
     63 C59        -20.0410    -4.5070    -6.9590 c3         4 MOL      -0.084400
     64 C60        -21.5740    -4.4940    -7.0950 c3         4 MOL       0.133400
     65 C61        -23.3890    -5.8920    -7.5210 c3         4 MOL       0.128400
     66 C62        -23.7280    -7.3010    -7.8210 c3         4 MOL       0.130400
     67 C63        -25.4580    -8.5890    -8.2730 c3         4 MOL       0.130400
     68 C64        -26.8790    -8.5580    -8.4370 c3         4 MOL       0.129400
     69 C65        -28.3860   -10.1070    -8.9560 c3         4 MOL       0.130400
     70 C66        -28.3060   -11.5070    -9.2540 c3         4 MOL       0.128400
     71 C67        -29.6060   -13.2140    -9.7890 c3         4 MOL       0.094400
     72 C68        -31.0410   -13.4830   -10.0130 c3         4 MOL       0.125400
     73 O           -8.9390     7.5520    -4.0040 o          4 MOL      -0.607433
     74 O1          -6.9090     1.5110    -3.7190 o          4 MOL      -0.607433
     75 O2          -2.7290     6.2180    -2.7830 o          4 MOL      -0.607433
     76 O3           9.1610    -5.9430    -7.4780 os         4 MOL      -0.427600
     77 O4          10.2200    -8.9950    -8.6690 os         4 MOL      -0.430600
     78 O5          11.8620   -11.6250    -9.6090 os         4 MOL      -0.430600
     79 O6          12.5620   -14.5980   -10.7810 os         4 MOL      -0.425600
     80 O7          14.3060   -17.4530   -11.7160 oh         4 MOL      -0.592800
     81 O8         -12.1910    23.2370     1.9630 os         4 MOL      -0.427600
     82 O9         -12.0300    26.4550     3.1250 os         4 MOL      -0.430600
     83 O10        -12.4530    29.4740     4.1920 os         4 MOL      -0.430600
     84 O11        -11.7730    32.4860     5.2650 os         4 MOL      -0.425600
     85 O12        -12.1030    35.7200     6.4740 oh         4 MOL      -0.592800
     86 O13        -22.0050    -5.8320    -7.3700 os         4 MOL      -0.427600
     87 O14        -25.1030    -7.3430    -7.9780 os         4 MOL      -0.430600
     88 O15        -27.1030    -9.8380    -8.7350 os         4 MOL      -0.430600
     89 O16        -29.5520   -11.8670    -9.4920 os         4 MOL      -0.425600
     90 O17        -31.1920   -14.8320   -10.3140 oh         4 MOL      -0.592800
     91 H253        -4.7780     3.0650    -3.8880 ha         4 MOL       0.161000
     92 H254        -8.6030     4.9870    -3.9680 ha         4 MOL       0.161000
     93 H255        -5.0490     7.3110    -3.3420 ha         4 MOL       0.161000
     94 H250        -6.3730     8.4520    -2.4470 hn         4 MOL       0.312167
     95 H251        -8.7520     3.3750    -5.4390 hn         4 MOL       0.312167
     96 H252        -2.9950     3.7310    -4.6600 hn         4 MOL       0.312167
     97 H6          -0.8070     4.4600    -2.8730 h1         4 MOL       0.064033
     98 H7          -0.6690     5.1780    -4.5010 h1         4 MOL       0.064033
     99 H8          -0.8800     2.9180    -5.5410 hc         4 MOL       0.046200
    100 H9          -1.0220     2.1830    -3.9090 hc         4 MOL       0.046200
    101 H10          1.2570     3.0030    -3.3380 hc         4 MOL       0.043200
    102 H11          1.4040     3.7370    -4.9730 hc         4 MOL       0.043200
    103 H12          1.0260     1.4970    -6.0060 hc         4 MOL       0.041367
    104 H13          0.8780     0.7700    -4.3740 hc         4 MOL       0.041367
    105 H14          3.2310     1.4170    -3.8670 hc         4 MOL       0.040533
    106 H15          3.3840     2.1440    -5.5050 hc         4 MOL       0.040533
    107 H16          2.8030    -0.0530    -6.5280 hc         4 MOL       0.040200
    108 H17          2.6490    -0.7730    -4.8930 hc         4 MOL       0.040200
    109 H18          5.0530    -0.2990    -4.4530 hc         4 MOL       0.040200
    110 H19          5.2100     0.4210    -6.0930 hc         4 MOL       0.040200
    111 H20          4.4460    -1.7260    -7.1040 hc         4 MOL       0.039700
    112 H21          4.2880    -2.4400    -5.4660 hc         4 MOL       0.039700
    113 H22          6.7330    -2.1410    -5.0950 hc         4 MOL       0.041700
    114 H23          6.8950    -1.4270    -6.7370 hc         4 MOL       0.041700
    115 H24          5.9690    -3.5130    -7.7310 hc         4 MOL       0.040367
    116 H25          5.8080    -4.2230    -6.0920 hc         4 MOL       0.040367
    117 H26          8.2680    -4.0510    -5.7710 hc         4 MOL       0.054700
    118 H27          8.4320    -3.3410    -7.4150 hc         4 MOL       0.054700
    119 H28          7.3870    -5.3820    -8.3970 h1         4 MOL       0.027700
    120 H29          7.2230    -6.0890    -6.7540 h1         4 MOL       0.027700
    121 H30          8.6580    -7.1640    -9.0290 h1         4 MOL       0.039700
    122 H31          8.4930    -7.8640    -7.3850 h1         4 MOL       0.039700
    123 H32         10.9250    -7.8520    -7.1250 h1         4 MOL       0.042367
    124 H33         11.0930    -7.1480    -8.7840 h1         4 MOL       0.042367
    125 H34         11.8290    -9.9090    -7.9050 h1         4 MOL       0.042200
    126 H35         11.9990    -9.2100    -9.5630 h1         4 MOL       0.042200
    127 H36         10.2610   -10.6680   -10.3550 h1         4 MOL       0.042700
    128 H37         10.0910   -11.3660    -8.6970 h1         4 MOL       0.042700
    129 H38         11.0790   -12.6980   -11.1240 h1         4 MOL       0.042700
    130 H39         10.9120   -13.3950    -9.4650 h1         4 MOL       0.042700
    131 H40         13.3070   -13.5170    -9.2730 h1         4 MOL       0.042200
    132 H41         13.4790   -12.8250   -10.9300 h1         4 MOL       0.042200
    133 H42         14.2140   -15.5090    -9.9900 h1         4 MOL       0.033700
    134 H43         14.3950   -14.8430   -11.6600 h1         4 MOL       0.033700
    135 H44         12.7000   -16.4280   -12.4600 h1         4 MOL       0.059200
    136 H45         12.5230   -17.0750   -10.7940 h1         4 MOL       0.059200
    137 H46         -8.7850     9.9090    -3.4540 h1         4 MOL       0.064033
    138 H48         -6.8400    11.3600    -2.8800 hc         4 MOL       0.046200
    139 H49         -6.9350    10.8080    -1.1690 hc         4 MOL       0.046200
    140 H50         -9.3050    11.5960    -1.0430 hc         4 MOL       0.043200
    141 H51         -9.2180    12.1530    -2.7450 hc         4 MOL       0.043200
    142 H52         -7.4680    13.8240    -2.1110 hc         4 MOL       0.041367
    143 H53         -7.5510    13.2560    -0.4040 hc         4 MOL       0.041367
    144 H54         -9.9770    13.8010    -0.3360 hc         4 MOL       0.040533
    145 H55         -9.9020    14.3750    -2.0350 hc         4 MOL       0.040533
    146 H56         -8.2540    16.1140    -1.3730 hc         4 MOL       0.040200
    147 H57         -8.3250    15.5320     0.3250 hc         4 MOL       0.040200
    148 H58        -10.7640    16.0150     0.3950 hc         4 MOL       0.040200
    149 H59        -10.7000    16.6030    -1.3020 hc         4 MOL       0.040200
    150 H60         -9.0580    18.3460    -0.6320 hc         4 MOL       0.039700
    151 H61         -9.1200    17.7520     1.0610 hc         4 MOL       0.039700
    152 H62        -11.5550    18.2690     1.1590 hc         4 MOL       0.041700
    153 H63        -11.4980    18.8670    -0.5340 hc         4 MOL       0.041700
    154 H64         -9.8100    20.5670     0.1250 hc         4 MOL       0.040367
    155 H65         -9.8650    19.9660     1.8150 hc         4 MOL       0.040367
    156 H66        -12.2790    20.5430     1.9490 hc         4 MOL       0.054700
    157 H67        -12.2290    21.1480     0.2560 hc         4 MOL       0.054700
    158 H68        -10.4690    22.7890     0.8960 h1         4 MOL       0.027700
    159 H69        -10.5170    22.1830     2.5860 h1         4 MOL       0.027700
    160 H70        -11.0220    24.8620     1.6210 h1         4 MOL       0.039700
    161 H71        -11.0610    24.2540     3.3100 h1         4 MOL       0.039700
    162 H72        -13.3860    24.9780     3.5270 h1         4 MOL       0.042367
    163 H73        -13.3490    25.5910     1.8230 h1         4 MOL       0.042367
    164 H74        -13.4110    27.2440     4.3420 h1         4 MOL       0.042200
    165 H75        -13.3800    27.8520     2.6390 h1         4 MOL       0.042200
    166 H76        -11.1270    28.6180     2.9530 h1         4 MOL       0.042700
    167 H77        -11.1560    28.0130     4.6540 h1         4 MOL       0.042700
    168 H78        -11.0010    30.7860     3.7180 h1         4 MOL       0.042700
    169 H79        -11.0280    30.1870     5.4240 h1         4 MOL       0.042700
    170 H80        -13.2010    31.1660     5.7350 h1         4 MOL       0.042200
    171 H81        -13.1780    31.7680     4.0340 h1         4 MOL       0.042200
    172 H82        -13.1430    33.3370     6.5240 h1         4 MOL       0.033700
    173 H83        -13.1190    33.9650     4.8290 h1         4 MOL       0.033700
    174 H84        -10.8320    34.7810     5.1780 h1         4 MOL       0.059200
    175 H85        -10.8630    34.1450     6.8570 h1         4 MOL       0.059200
    176 H86         -8.9840     0.5890    -4.3670 h1         4 MOL       0.064033
    177 H87         -8.8800     0.8730    -6.1330 h1         4 MOL       0.064033
    178 H88        -10.9300     2.2670    -6.0750 hc         4 MOL       0.046200
    179 H89        -11.0670     2.0000    -4.3040 hc         4 MOL       0.046200
    180 H90        -11.2270    -0.4560    -4.6880 hc         4 MOL       0.043200
    181 H91        -11.0900    -0.1870    -6.4570 hc         4 MOL       0.043200
    182 H92        -13.1710     1.1890    -6.4060 hc         4 MOL       0.041367
    183 H93        -13.3060     0.9160    -4.6360 hc         4 MOL       0.041367
    184 H94        -13.4370    -1.5430    -5.0260 hc         4 MOL       0.040533
    185 H95        -13.3030    -1.2690    -6.7950 hc         4 MOL       0.040533
    186 H96        -15.4060     0.0670    -6.7480 hc         4 MOL       0.040200
    187 H97        -15.5420    -0.2110    -4.9780 hc         4 MOL       0.040200
    188 H98        -15.6010    -2.6720    -5.3730 hc         4 MOL       0.040200
    189 H99        -15.4630    -2.3890    -7.1400 hc         4 MOL       0.040200
    190 H100       -17.6070    -1.1230    -7.1070 hc         4 MOL       0.039700
    191 H101       -17.7490    -1.4090    -5.3380 hc         4 MOL       0.039700
    192 H102       -17.7150    -3.8750    -5.7400 hc         4 MOL       0.041700
    193 H103       -17.5700    -3.5830    -7.5040 hc         4 MOL       0.041700
    194 H104       -19.7740    -2.4220    -7.4980 hc         4 MOL       0.040367
    195 H105       -19.9260    -2.7170    -5.7310 hc         4 MOL       0.040367
    196 H106       -19.7540    -5.1760    -6.1340 hc         4 MOL       0.054700
    197 H107       -19.5990    -4.8740    -7.8960 hc         4 MOL       0.054700
    198 H108       -21.8660    -3.8320    -7.9240 h1         4 MOL       0.027700
    199 H109       -22.0300    -4.1390    -6.1590 h1         4 MOL       0.027700
    200 H110       -23.7090    -5.2520    -8.3550 h1         4 MOL       0.039700
    201 H111       -23.8910    -5.5770    -6.5950 h1         4 MOL       0.039700
    202 H112       -23.4150    -7.9530    -6.9890 h1         4 MOL       0.042367
    203 H113       -23.2280    -7.6160    -8.7500 h1         4 MOL       0.042367
    204 H114       -25.1900    -9.2760    -7.4590 h1         4 MOL       0.042200
    205 H115       -24.9850    -8.9150    -9.2110 h1         4 MOL       0.042200
    206 H116       -27.1660    -7.8910    -9.2640 h1         4 MOL       0.042700
    207 H117       -27.3810    -8.2600    -7.5040 h1         4 MOL       0.042700
    208 H118       -28.7790    -9.5440    -9.8160 h1         4 MOL       0.042700
    209 H119       -29.0010    -9.9290    -8.0610 h1         4 MOL       0.042700
    210 H120       -27.8950   -12.0500    -8.3920 h1         4 MOL       0.042200
    211 H121       -27.6730   -11.6660   -10.1380 h1         4 MOL       0.042200
    212 H122       -29.2330   -13.8130    -8.9420 h1         4 MOL       0.033700
    213 H123       -29.0220   -13.4370   -10.6960 h1         4 MOL       0.033700
    214 H124       -31.4030   -12.8670   -10.8470 h1         4 MOL       0.059200
    215 H125       -31.6010   -13.2370    -9.1010 h1         4 MOL       0.059200
    216 H126       -30.6980   -15.0520   -11.1440 ho         4 MOL       0.398000
    217 H127        14.9280   -17.0490   -12.3720 ho         4 MOL       0.398000
    218 H128       -12.6410    36.1110     5.7390 ho         4 MOL       0.398000
    219 H47         -8.8980     9.3570    -1.7580 h1         4 MOL       0.064033
@<TRIPOS>BOND
     1     1    10 1   
     2     1    13 1   
     3     1    94 1   
     4     2    11 1   
     5     2    12 1   
     6     2    95 1   
     7     3    14 1   
     8     3    15 1   
     9     3    96 1   
    10     4     5 ar  
    11     4     9 ar  
    12     4    15 1   
    13     5     6 ar  
    14     5    91 1   
    15     6     7 ar  
    16     6    11 1   
    17     7     8 ar  
    18     7    92 1   
    19     8     9 ar  
    20     8    10 1   
    21     9    93 1   
    22    10    73 2   
    23    11    74 2   
    24    12    54 1   
    25    12   176 1   
    26    12   177 1   
    27    13    35 1   
    28    13   137 1   
    29    13   219 1   
    30    14    16 1   
    31    14    97 1   
    32    14    98 1   
    33    15    75 2   
    34    16    17 1   
    35    16    99 1   
    36    16   100 1   
    37    17    18 1   
    38    17   101 1   
    39    17   102 1   
    40    18    19 1   
    41    18   103 1   
    42    18   104 1   
    43    19    20 1   
    44    19   105 1   
    45    19   106 1   
    46    20    21 1   
    47    20   107 1   
    48    20   108 1   
    49    21    22 1   
    50    21   109 1   
    51    21   110 1   
    52    22    23 1   
    53    22   111 1   
    54    22   112 1   
    55    23    24 1   
    56    23   113 1   
    57    23   114 1   
    58    24    25 1   
    59    24   115 1   
    60    24   116 1   
    61    25    26 1   
    62    25   117 1   
    63    25   118 1   
    64    26    76 1   
    65    26   119 1   
    66    26   120 1   
    67    27    28 1   
    68    27    76 1   
    69    27   121 1   
    70    27   122 1   
    71    28    77 1   
    72    28   123 1   
    73    28   124 1   
    74    29    30 1   
    75    29    77 1   
    76    29   125 1   
    77    29   126 1   
    78    30    78 1   
    79    30   127 1   
    80    30   128 1   
    81    31    32 1   
    82    31    78 1   
    83    31   129 1   
    84    31   130 1   
    85    32    79 1   
    86    32   131 1   
    87    32   132 1   
    88    33    34 1   
    89    33    79 1   
    90    33   133 1   
    91    33   134 1   
    92    34    80 1   
    93    34   135 1   
    94    34   136 1   
    95    35    36 1   
    96    35   138 1   
    97    35   139 1   
    98    36    37 1   
    99    36   140 1   
   100    36   141 1   
   101    37    38 1   
   102    37   142 1   
   103    37   143 1   
   104    38    39 1   
   105    38   144 1   
   106    38   145 1   
   107    39    40 1   
   108    39   146 1   
   109    39   147 1   
   110    40    41 1   
   111    40   148 1   
   112    40   149 1   
   113    41    42 1   
   114    41   150 1   
   115    41   151 1   
   116    42    43 1   
   117    42   152 1   
   118    42   153 1   
   119    43    44 1   
   120    43   154 1   
   121    43   155 1   
   122    44    45 1   
   123    44   156 1   
   124    44   157 1   
   125    45    81 1   
   126    45   158 1   
   127    45   159 1   
   128    46    47 1   
   129    46    81 1   
   130    46   160 1   
   131    46   161 1   
   132    47    82 1   
   133    47   162 1   
   134    47   163 1   
   135    48    49 1   
   136    48    82 1   
   137    48   164 1   
   138    48   165 1   
   139    49    83 1   
   140    49   166 1   
   141    49   167 1   
   142    50    51 1   
   143    50    83 1   
   144    50   168 1   
   145    50   169 1   
   146    51    84 1   
   147    51   170 1   
   148    51   171 1   
   149    52    53 1   
   150    52    84 1   
   151    52   172 1   
   152    52   173 1   
   153    53    85 1   
   154    53   174 1   
   155    53   175 1   
   156    54    55 1   
   157    54   178 1   
   158    54   179 1   
   159    55    56 1   
   160    55   180 1   
   161    55   181 1   
   162    56    57 1   
   163    56   182 1   
   164    56   183 1   
   165    57    58 1   
   166    57   184 1   
   167    57   185 1   
   168    58    59 1   
   169    58   186 1   
   170    58   187 1   
   171    59    60 1   
   172    59   188 1   
   173    59   189 1   
   174    60    61 1   
   175    60   190 1   
   176    60   191 1   
   177    61    62 1   
   178    61   192 1   
   179    61   193 1   
   180    62    63 1   
   181    62   194 1   
   182    62   195 1   
   183    63    64 1   
   184    63   196 1   
   185    63   197 1   
   186    64    86 1   
   187    64   198 1   
   188    64   199 1   
   189    65    66 1   
   190    65    86 1   
   191    65   200 1   
   192    65   201 1   
   193    66    87 1   
   194    66   202 1   
   195    66   203 1   
   196    67    68 1   
   197    67    87 1   
   198    67   204 1   
   199    67   205 1   
   200    68    88 1   
   201    68   206 1   
   202    68   207 1   
   203    69    70 1   
   204    69    88 1   
   205    69   208 1   
   206    69   209 1   
   207    70    89 1   
   208    70   210 1   
   209    70   211 1   
   210    71    72 1   
   211    71    89 1   
   212    71   212 1   
   213    71   213 1   
   214    72    90 1   
   215    72   214 1   
   216    72   215 1   
   217    80   217 1   
   218    85   218 1   
   219    90   216 1   
@<TRIPOS>SUBSTRUCTURE
     1 MOL         1 TEMP              0 ****  ****    0 ROOT
