@<TRIPOS>MOLECULE
MOL
  219   219     1     0     0
SMALL
bcc


@<TRIPOS>ATOM
      1 N           -9.2330     9.7770    -6.0670 n          5 MOL      -0.563567
      2 N1          -7.1080     4.0310    -8.1430 n          5 MOL      -0.563567
      3 N2          -2.8120     6.7510    -7.3420 n          5 MOL      -0.563567
      4 C           -5.0570     7.6040    -6.9280 ca         5 MOL      -0.153933
      5 C1          -5.6910     6.3670    -7.1270 ca         5 MOL      -0.041000
      6 C2          -7.0880     6.2720    -7.2320 ca         5 MOL      -0.153933
      7 C3          -7.8530     7.4370    -7.1070 ca         5 MOL      -0.041000
      8 C4          -7.2480     8.6840    -6.8890 ca         5 MOL      -0.153933
      9 C5          -5.8510     8.7540    -6.8220 ca         5 MOL      -0.041000
     10 C6          -8.0720     9.9340    -6.7130 c          5 MOL       0.669033
     11 C7          -7.7720     4.9400    -7.4220 c          5 MOL       0.669033
     12 C8          -7.5370     2.6560    -8.3710 c3         5 MOL       0.084667
     13 C9         -10.2130    10.8290    -5.8100 c3         5 MOL       0.084667
     14 C10         -1.3580     6.6730    -7.2200 c3         5 MOL       0.084667
     15 C11         -3.5570     7.7130    -6.7780 c          5 MOL       0.669033
     16 C12         -1.0940     5.4870    -7.5770 c3         5 MOL      -0.102400
     17 C13          0.3760     5.8110    -7.5400 c3         5 MOL      -0.078067
     18 C14          0.4730     4.4510    -7.9410 c3         5 MOL      -0.080067
     19 C15          1.8040     4.8390    -7.8810 c3         5 MOL      -0.079400
     20 C16          1.8700     3.3920    -8.3060 c3         5 MOL      -0.078733
     21 C17          3.2240     3.6160    -8.2940 c3         5 MOL      -0.079067
     22 C18          3.1770     2.3620    -8.6590 c3         5 MOL      -0.078400
     23 C19          4.5360     2.5460    -8.6590 c3         5 MOL      -0.080067
     24 C20          4.3250     1.2270    -9.0350 c3         5 MOL      -0.079067
     25 C21          5.6360     1.4460    -9.0230 c3         5 MOL      -0.082400
     26 C22          5.5150     0.0980    -9.4120 c3         5 MOL       0.069400
     27 C23          6.8070    -1.1420    -9.8250 c3         5 MOL       0.029733
     28 C24          8.2450    -0.9060    -9.8130 c3         5 MOL       0.091733
     29 C25          9.4720    -1.9880   -10.1780 c3         5 MOL      -0.028267
     30 C26          9.3040    -3.3000   -10.5550 c3         5 MOL       0.155733
     31 C27         10.4570    -4.4760   -10.9440 c3         5 MOL       0.111733
     32 C28         11.8590    -4.2860   -10.9440 c3         5 MOL       0.101733
     33 C29         12.9100    -5.3510   -11.2960 c3         5 MOL       0.089733
     34 C30         12.8070    -6.8210   -11.7210 c3         5 MOL       0.104400
     35 C31        -11.0890    10.0660    -5.9980 c3         5 MOL      -0.102400
     36 C32        -11.7670    11.2260    -5.6330 c3         5 MOL      -0.078067
     37 C33        -12.7310    10.3450    -5.8520 c3         5 MOL      -0.080067
     38 C34        -13.3710    11.5520    -5.4740 c3         5 MOL      -0.079400
     39 C35        -14.4160    10.6180    -5.7060 c3         5 MOL      -0.078733
     40 C36        -15.0020    11.7480    -5.3520 c3         5 MOL      -0.079067
     41 C37        -16.2850    10.6570    -5.6200 c3         5 MOL      -0.078400
     42 C38        -17.0270    11.9750    -5.2060 c3         5 MOL      -0.080067
     43 C39        -17.8750    11.1930    -5.4010 c3         5 MOL      -0.079067
     44 C40        -18.6480    12.4240    -5.0110 c3         5 MOL      -0.082400
     45 C41        -19.6070    11.5010    -5.2430 c3         5 MOL       0.069400
     46 C42        -21.4030    11.6340    -5.1330 c3         5 MOL       0.029733
     47 C43        -22.0800    12.7940    -4.7670 c3         5 MOL       0.091733
     48 C44        -23.8720    13.2190    -4.5720 c3         5 MOL      -0.028267
     49 C45        -24.8990    12.1620    -4.8400 c3         5 MOL       0.155733
     50 C46        -26.6260    12.4290    -4.6940 c3         5 MOL       0.111733
     51 C47        -27.4050    13.7010    -4.2920 c3         5 MOL       0.101733
     52 C48        -29.1000    14.0560    -4.1210 c3         5 MOL       0.089733
     53 C49        -30.1280    12.9990    -4.3890 c3         5 MOL       0.104400
     54 C50         -7.1100     1.4290    -8.7460 c3         5 MOL      -0.102400
     55 C51         -8.2260     0.8970    -8.8580 c3         5 MOL      -0.078067
     56 C52         -7.5470    -0.2180    -9.2100 c3         5 MOL      -0.080067
     57 C53         -8.7410    -0.6650    -9.2940 c3         5 MOL      -0.079400
     58 C54         -8.0340    -1.7440    -9.6370 c3         5 MOL      -0.078733
     59 C55         -9.2640    -2.1650    -9.7110 c3         5 MOL      -0.079067
     60 C56         -8.4720    -3.1380   -10.0270 c3         5 MOL      -0.078400
     61 C57         -9.6580    -3.6470   -10.1290 c3         5 MOL      -0.080067
     62 C58         -8.8980    -4.6240   -10.4440 c3         5 MOL      -0.079067
     63 C59        -10.0790    -5.1650   -10.5550 c3         5 MOL      -0.082400
     64 C60         -9.3480    -6.1780   -10.8800 c3         5 MOL       0.069400
     65 C61         -9.7450    -7.8830   -11.3620 c3         5 MOL       0.029733
     66 C62        -10.9130    -8.5170   -11.5020 c3         5 MOL       0.091733
     67 C63        -11.3870   -10.1370   -11.9560 c3         5 MOL      -0.028267
     68 C64        -10.5140   -11.2260   -12.3090 c3         5 MOL       0.155733
     69 C65        -10.7070   -12.8390   -12.7720 c3         5 MOL       0.111733
     70 C66        -11.9360   -13.5140   -12.9210 c3         5 MOL       0.101733
     71 C67        -12.1910   -15.0410   -13.3570 c3         5 MOL       0.089733
     72 C68        -11.1320   -16.0410   -13.6910 c3         5 MOL       0.104400
     73 O           -7.6710    11.0280    -7.1120 o          5 MOL      -0.596100
     74 O1          -8.8810     4.7170    -6.9320 o          5 MOL      -0.596100
     75 O2          -3.0530     8.6530    -6.1600 o          5 MOL      -0.596100
     76 O3           6.9590     0.2940    -9.4120 os         5 MOL      -0.296600
     77 O4           7.8700    -2.2880   -10.2020 os         5 MOL      -0.444600
     78 O5          10.7480    -3.1050   -10.5550 os         5 MOL      -0.416267
     79 O6          11.6900    -5.5990   -11.3200 os         5 MOL      -0.414933
     80 O7          14.2500    -6.6260   -11.7210 oh         5 MOL      -0.592133
     81 O8         -20.4600    12.6790    -4.8650 os         5 MOL      -0.296600
     82 O9         -23.0820    11.8660    -4.9990 os         5 MOL      -0.444600
     83 O10        -25.6300    13.3990    -4.4500 os         5 MOL      -0.416267
     84 O11        -28.3330    12.8660    -4.4990 os         5 MOL      -0.414933
     85 O12        -30.9330    14.1420    -4.0240 oh         5 MOL      -0.592133
     86 O13        -10.5970    -6.9500   -11.0560 os         5 MOL      -0.296600
     87 O14        -10.1820    -9.5300   -11.8260 os         5 MOL      -0.444600
     88 O15        -11.8440   -11.8820   -12.4480 os         5 MOL      -0.416267
     89 O16        -11.0550   -14.4110   -13.2180 os         5 MOL      -0.414933
     90 O17        -12.3050   -16.6440   -13.8210 oh         5 MOL      -0.592133
     91 H253        -5.0970     5.4650    -7.1780 ha         5 MOL       0.160667
     92 H254        -8.9320     7.3670    -7.1670 ha         5 MOL       0.160667
     93 H255        -5.3760     9.7140    -6.6590 ha         5 MOL       0.160667
     94 H250        -9.3650     8.8940    -5.5840 hn         5 MOL       0.307833
     95 H251        -6.2920     4.3520    -8.6580 hn         5 MOL       0.307833
     96 H252        -3.2770     6.0650    -7.9160 hn         5 MOL       0.307833
     97 H6          -1.0490     6.8460    -6.2100 h1         5 MOL       0.063700
     98 H7          -0.8510     7.4080    -7.8090 h1         5 MOL       0.063700
     99 H8          -1.4610     5.2300    -8.5480 hc         5 MOL       0.045533
    100 H9          -1.4810     4.6550    -7.0270 hc         5 MOL       0.045533
    101 H10          0.7790     6.0440    -6.5770 hc         5 MOL       0.045033
    102 H11          0.8330     6.6320    -8.0520 hc         5 MOL       0.045033
    103 H12          0.0870     4.2060    -8.9090 hc         5 MOL       0.039700
    104 H13          0.0290     3.6070    -7.4570 hc         5 MOL       0.039700
    105 H14          2.1970     5.0800    -6.9150 hc         5 MOL       0.040867
    106 H15          2.2600     5.6800    -8.3600 hc         5 MOL       0.040867
    107 H16          1.4470     3.1730    -9.2640 hc         5 MOL       0.039533
    108 H17          1.3930     2.5920    -7.7790 hc         5 MOL       0.039533
    109 H18          3.6650     3.8200    -7.3410 hc         5 MOL       0.040533
    110 H19          3.7380     4.4040    -8.8030 hc         5 MOL       0.040533
    111 H20          2.7280     2.1640    -9.6090 hc         5 MOL       0.039200
    112 H21          2.6580     1.5850    -8.1370 hc         5 MOL       0.039200
    113 H22          5.0100     2.7200    -7.7160 hc         5 MOL       0.040867
    114 H23          5.1080     3.3000    -9.1570 hc         5 MOL       0.040867
    115 H24          3.8570     1.0460    -9.9810 hc         5 MOL       0.042700
    116 H25          3.7580     0.4620    -8.5480 hc         5 MOL       0.042700
    117 H26          6.0880     1.6410    -8.0730 hc         5 MOL       0.051533
    118 H27          6.1730     2.2250    -9.5220 hc         5 MOL       0.051533
    119 H28          5.0550    -0.0900   -10.3600 h1         5 MOL       0.045533
    120 H29          4.9730    -0.6700    -8.9010 h1         5 MOL       0.045533
    121 H30          6.3500    -1.3320   -10.7740 h1         5 MOL       0.048533
    122 H31          6.2620    -1.9170    -9.3280 h1         5 MOL       0.048533
    123 H32          8.7350    -0.7470    -8.8750 h1         5 MOL       0.063367
    124 H33          8.8560    -0.1660   -10.2870 h1         5 MOL       0.063367
    125 H34          9.9290    -1.7970    -9.2290 h1         5 MOL       0.071867
    126 H35         10.0230    -1.2090   -10.6630 h1         5 MOL       0.071867
    127 H36          8.8360    -3.4810   -11.5000 h1         5 MOL       0.065867
    128 H37          8.7450    -4.0610   -10.0510 h1         5 MOL       0.065867
    129 H38          9.9720    -4.6400   -11.8830 h1         5 MOL       0.051533
    130 H39          9.8640    -5.2190   -10.4520 h1         5 MOL       0.051533
    131 H40         12.3270    -4.1060    -9.9990 h1         5 MOL       0.057033
    132 H41         12.4180    -3.5260   -11.4480 h1         5 MOL       0.057033
    133 H42         13.3510    -5.1450   -10.3430 h1         5 MOL       0.048367
    134 H43         13.4340    -4.5560   -11.7850 h1         5 MOL       0.048367
    135 H44         12.3510    -7.0130   -12.6700 h1         5 MOL       0.054033
    136 H45         12.2730    -7.5920   -11.2070 h1         5 MOL       0.054033
    137 H46        -10.1800    11.6360    -6.5110 h1         5 MOL       0.063700
    138 H47        -10.1740    11.3920    -4.9010 h1         5 MOL       0.063700
    139 H48        -11.1590     9.2360    -5.3270 hc         5 MOL       0.045533
    140 H49        -11.2520     9.4770    -6.8760 hc         5 MOL       0.045533
    141 H50        -11.7050    12.0580    -6.3030 hc         5 MOL       0.045033
    142 H51        -11.6140    11.8240    -4.7580 hc         5 MOL       0.045033
    143 H52        -12.8050     9.5150    -5.1810 hc         5 MOL       0.039700
    144 H53        -12.9010     9.7400    -6.7180 hc         5 MOL       0.039700
    145 H54        -13.2940    12.3810    -6.1460 hc         5 MOL       0.040867
    146 H55        -13.1970    12.1540    -4.6070 hc         5 MOL       0.040867
    147 H56        -14.4950     9.7890    -5.0340 hc         5 MOL       0.039533
    148 H57        -14.5930    10.0140    -6.5710 hc         5 MOL       0.039533
    149 H58        -14.9150    12.5760    -6.0250 hc         5 MOL       0.040533
    150 H59        -14.8150    12.3440    -4.4830 hc         5 MOL       0.040533
    151 H60        -16.3620     9.8280    -4.9490 hc         5 MOL       0.039200
    152 H61        -16.4580    10.0680    -6.4970 hc         5 MOL       0.039200
    153 H62        -16.9620    12.8070    -5.8770 hc         5 MOL       0.040867
    154 H63        -16.8700    12.5780    -4.3360 hc         5 MOL       0.040867
    155 H64        -17.9250    10.3600    -4.7320 hc         5 MOL       0.042700
    156 H65        -18.0120    10.6010    -6.2810 hc         5 MOL       0.042700
    157 H66        -18.6040    13.2580    -5.6800 hc         5 MOL       0.051533
    158 H67        -18.5190    13.0230    -4.1340 hc         5 MOL       0.051533
    159 H68        -19.6320    10.6650    -4.5750 h1         5 MOL       0.045533
    160 H69        -19.7090    10.9180    -6.1340 h1         5 MOL       0.045533
    161 H70        -21.4340    10.7990    -4.4650 h1         5 MOL       0.048533
    162 H71        -21.5160    11.0070    -5.9930 h1         5 MOL       0.048533
    163 H72        -22.0200    13.6260    -5.4370 h1         5 MOL       0.063367
    164 H73        -21.9300    13.3940    -3.8940 h1         5 MOL       0.063367
    165 H74        -23.8280    14.0530    -5.2410 h1         5 MOL       0.071867
    166 H75        -23.7420    13.8350    -3.7070 h1         5 MOL       0.071867
    167 H76        -24.9410    11.3280    -4.1720 h1         5 MOL       0.065867
    168 H77        -25.0260    11.5470    -5.7070 h1         5 MOL       0.065867
    169 H78        -26.6720    11.5960    -4.0250 h1         5 MOL       0.051533
    170 H79        -26.7570    11.8260    -5.5680 h1         5 MOL       0.051533
    171 H80        -27.3470    14.5330    -4.9620 h1         5 MOL       0.057033
    172 H81        -27.2580    14.2920    -3.4120 h1         5 MOL       0.057033
    173 H82        -29.0700    14.8910    -4.7890 h1         5 MOL       0.048367
    174 H83        -28.9900    14.6620    -3.2470 h1         5 MOL       0.048367
    175 H84        -30.1460    12.1630    -3.7220 h1         5 MOL       0.054033
    176 H85        -30.2220    12.4010    -5.2720 h1         5 MOL       0.054033
    177 H86         -8.3190     2.8140    -9.0840 h1         5 MOL       0.063700
    178 H87         -7.3790     2.4160    -7.3400 h1         5 MOL       0.063700
    179 H88         -6.5080     0.9600    -7.9960 hc         5 MOL       0.045533
    180 H89         -6.4770     1.3900    -9.6080 hc         5 MOL       0.045533
    181 H90         -8.8490     1.3090    -9.6230 hc         5 MOL       0.045033
    182 H91         -8.9520     0.9070    -8.0710 hc         5 MOL       0.045033
    183 H92         -6.9320    -0.6550    -8.4510 hc         5 MOL       0.039700
    184 H93         -6.8100    -0.2740    -9.9840 hc         5 MOL       0.039700
    185 H94         -9.3590    -0.2370   -10.0550 hc         5 MOL       0.040867
    186 H95         -9.4890    -0.6160    -8.5310 hc         5 MOL       0.040867
    187 H96         -7.4190    -2.1810    -8.8780 hc         5 MOL       0.039533
    188 H97         -7.2830    -1.8090   -10.3960 hc         5 MOL       0.039533
    189 H98         -9.8890    -1.7570   -10.4780 hc         5 MOL       0.040533
    190 H99        -10.0470    -2.1260    -8.9830 hc         5 MOL       0.040533
    191 H100        -7.8410    -3.5230    -9.2530 hc         5 MOL       0.039200
    192 H101        -7.6950    -3.1360   -10.7620 hc         5 MOL       0.039200
    193 H102       -10.2870    -3.2560   -10.9000 hc         5 MOL       0.040867
    194 H103       -10.4280    -3.6430    -9.3860 hc         5 MOL       0.040867
    195 H104        -8.2670    -5.0090    -9.6700 hc         5 MOL       0.042700
    196 H105        -8.1310    -4.6170   -11.1900 hc         5 MOL       0.042700
    197 H106       -10.7080    -4.7710   -11.3260 hc         5 MOL       0.051533
    198 H107       -10.8350    -5.1640    -9.7980 hc         5 MOL       0.051533
    199 H108        -8.7100    -6.5350   -10.0990 h1         5 MOL       0.045533
    200 H109        -8.6150    -6.1130   -11.6560 h1         5 MOL       0.045533
    201 H110        -9.1040    -8.2240   -10.5770 h1         5 MOL       0.048533
    202 H111        -8.9630    -7.8190   -12.0900 h1         5 MOL       0.048533
    203 H112       -11.5470    -8.1430   -12.2780 h1         5 MOL       0.063367
    204 H113       -11.6580    -8.5520   -10.7340 h1         5 MOL       0.063367
    205 H114       -12.0220    -9.7690   -12.7340 h1         5 MOL       0.071867
    206 H115       -12.1540   -10.1690   -11.2110 h1         5 MOL       0.071867
    207 H116        -9.8790   -11.5980   -11.5320 h1         5 MOL       0.065867
    208 H117        -9.7450   -11.2000   -13.0530 h1         5 MOL       0.065867
    209 H118       -10.0600   -13.1410   -11.9750 h1         5 MOL       0.051533
    210 H119        -9.8920   -12.7340   -13.4570 h1         5 MOL       0.051533
    211 H120       -12.5790   -13.1840   -13.7100 h1         5 MOL       0.057033
    212 H121       -12.7270   -13.5900   -12.2050 h1         5 MOL       0.057033
    213 H122       -12.8360   -14.7240   -14.1500 h1         5 MOL       0.048367
    214 H123       -12.9920   -15.1310   -12.6530 h1         5 MOL       0.048367
    215 H124       -10.4890   -16.3680   -12.9010 h1         5 MOL       0.054033
    216 H125       -10.3270   -15.9670   -14.3920 h1         5 MOL       0.054033
    217 H126       -12.8180   -16.5330   -13.0050 ho         5 MOL       0.398000
    218 H127        14.4720    -5.8550   -12.2670 ho         5 MOL       0.398000
    219 H128       -30.6290    14.4920    -3.1720 ho         5 MOL       0.398000
@<TRIPOS>BOND
     1     1    10 1   
     2     1    13 1   
     3     1    94 1   
     4     2    11 1   
     5     2    12 1   
     6     2    95 1   
     7     3    14 1   
     8     3    15 1   
     9     3    96 1   
    10     4     5 ar  
    11     4     9 ar  
    12     4    15 1   
    13     5     6 ar  
    14     5    91 1   
    15     6     7 ar  
    16     6    11 1   
    17     7     8 ar  
    18     7    92 1   
    19     8     9 ar  
    20     8    10 1   
    21     9    93 1   
    22    10    73 2   
    23    11    74 2   
    24    12    54 1   
    25    12   177 1   
    26    12   178 1   
    27    13    35 1   
    28    13   137 1   
    29    13   138 1   
    30    14    16 1   
    31    14    97 1   
    32    14    98 1   
    33    15    75 2   
    34    16    17 1   
    35    16    99 1   
    36    16   100 1   
    37    17    18 1   
    38    17   101 1   
    39    17   102 1   
    40    18    19 1   
    41    18   103 1   
    42    18   104 1   
    43    19    20 1   
    44    19   105 1   
    45    19   106 1   
    46    20    21 1   
    47    20   107 1   
    48    20   108 1   
    49    21    22 1   
    50    21   109 1   
    51    21   110 1   
    52    22    23 1   
    53    22   111 1   
    54    22   112 1   
    55    23    24 1   
    56    23   113 1   
    57    23   114 1   
    58    24    25 1   
    59    24   115 1   
    60    24   116 1   
    61    25    26 1   
    62    25   117 1   
    63    25   118 1   
    64    26    76 1   
    65    26   119 1   
    66    26   120 1   
    67    27    28 1   
    68    27    76 1   
    69    27   121 1   
    70    27   122 1   
    71    28    77 1   
    72    28   123 1   
    73    28   124 1   
    74    29    30 1   
    75    29    77 1   
    76    29   125 1   
    77    29   126 1   
    78    30    78 1   
    79    30   127 1   
    80    30   128 1   
    81    31    32 1   
    82    31    78 1   
    83    31   129 1   
    84    31   130 1   
    85    32    79 1   
    86    32   131 1   
    87    32   132 1   
    88    33    34 1   
    89    33    79 1   
    90    33   133 1   
    91    33   134 1   
    92    34    80 1   
    93    34   135 1   
    94    34   136 1   
    95    35    36 1   
    96    35   139 1   
    97    35   140 1   
    98    36    37 1   
    99    36   141 1   
   100    36   142 1   
   101    37    38 1   
   102    37   143 1   
   103    37   144 1   
   104    38    39 1   
   105    38   145 1   
   106    38   146 1   
   107    39    40 1   
   108    39   147 1   
   109    39   148 1   
   110    40    41 1   
   111    40   149 1   
   112    40   150 1   
   113    41    42 1   
   114    41   151 1   
   115    41   152 1   
   116    42    43 1   
   117    42   153 1   
   118    42   154 1   
   119    43    44 1   
   120    43   155 1   
   121    43   156 1   
   122    44    45 1   
   123    44   157 1   
   124    44   158 1   
   125    45    81 1   
   126    45   159 1   
   127    45   160 1   
   128    46    47 1   
   129    46    81 1   
   130    46   161 1   
   131    46   162 1   
   132    47    82 1   
   133    47   163 1   
   134    47   164 1   
   135    48    49 1   
   136    48    82 1   
   137    48   165 1   
   138    48   166 1   
   139    49    83 1   
   140    49   167 1   
   141    49   168 1   
   142    50    51 1   
   143    50    83 1   
   144    50   169 1   
   145    50   170 1   
   146    51    84 1   
   147    51   171 1   
   148    51   172 1   
   149    52    53 1   
   150    52    84 1   
   151    52   173 1   
   152    52   174 1   
   153    53    85 1   
   154    53   175 1   
   155    53   176 1   
   156    54    55 1   
   157    54   179 1   
   158    54   180 1   
   159    55    56 1   
   160    55   181 1   
   161    55   182 1   
   162    56    57 1   
   163    56   183 1   
   164    56   184 1   
   165    57    58 1   
   166    57   185 1   
   167    57   186 1   
   168    58    59 1   
   169    58   187 1   
   170    58   188 1   
   171    59    60 1   
   172    59   189 1   
   173    59   190 1   
   174    60    61 1   
   175    60   191 1   
   176    60   192 1   
   177    61    62 1   
   178    61   193 1   
   179    61   194 1   
   180    62    63 1   
   181    62   195 1   
   182    62   196 1   
   183    63    64 1   
   184    63   197 1   
   185    63   198 1   
   186    64    86 1   
   187    64   199 1   
   188    64   200 1   
   189    65    66 1   
   190    65    86 1   
   191    65   201 1   
   192    65   202 1   
   193    66    87 1   
   194    66   203 1   
   195    66   204 1   
   196    67    68 1   
   197    67    87 1   
   198    67   205 1   
   199    67   206 1   
   200    68    88 1   
   201    68   207 1   
   202    68   208 1   
   203    69    70 1   
   204    69    88 1   
   205    69   209 1   
   206    69   210 1   
   207    70    89 1   
   208    70   211 1   
   209    70   212 1   
   210    71    72 1   
   211    71    89 1   
   212    71   213 1   
   213    71   214 1   
   214    72    90 1   
   215    72   215 1   
   216    72   216 1   
   217    80   218 1   
   218    85   219 1   
   219    90   217 1   
@<TRIPOS>SUBSTRUCTURE
     1 MOL         1 TEMP              0 ****  ****    0 ROOT
