@<TRIPOS>MOLECULE
MOL
  378   381     1     0     0
SMALL
bcc


@<TRIPOS>ATOM
      1 N           -9.2330     9.7770    -6.0670 n          5 MOL      -0.558567
      2 N1          -7.1080     4.0310    -8.1430 n          5 MOL      -0.558567
      3 N2          -2.8120     6.7510    -7.3420 n          5 MOL      -0.558567
      4 C           -5.0570     7.6040    -6.9280 ca         5 MOL      -0.156600
      5 C1          -5.6910     6.3670    -7.1270 ca         5 MOL      -0.037667
      6 C2          -7.0880     6.2720    -7.2320 ca         5 MOL      -0.156600
      7 C3          -7.8530     7.4370    -7.1070 ca         5 MOL      -0.037667
      8 C4          -7.2480     8.6840    -6.8890 ca         5 MOL      -0.156600
      9 C5          -5.8510     8.7540    -6.8220 ca         5 MOL      -0.037667
     10 C6          -8.0720     9.9340    -6.7130 c          5 MOL       0.669700
     11 C7          -7.7720     4.9400    -7.4220 c          5 MOL       0.669700
     12 C8          -7.6730     2.7650    -8.3300 c3         5 MOL       0.084000
     13 C9         -10.0150    10.9040    -5.8350 c3         5 MOL       0.084000
     14 C10         -1.4340     6.9730    -7.1850 c3         5 MOL       0.084000
     15 C11         -3.5570     7.7130    -6.7780 c          5 MOL       0.669700
     16 C12         -0.5320     5.9190    -7.6520 c3         5 MOL      -0.105400
     17 C13          0.8340     6.4940    -7.3450 c3         5 MOL      -0.077400
     18 C14          1.8310     5.5150    -7.7740 c3         5 MOL      -0.079067
     19 C15          3.2330     6.0110    -7.5180 c3         5 MOL      -0.079400
     20 C16          3.9910     4.8650    -8.0300 c3         5 MOL      -0.079400
     21 C17          5.4820     4.9510    -7.9740 c3         5 MOL      -0.079400
     22 C18          5.7310     3.6140    -8.5710 c3         5 MOL      -0.079400
     23 C19          7.1240     3.1670    -8.7560 c3         5 MOL      -0.078400
     24 C20          6.7950     1.8280    -9.3360 c3         5 MOL      -0.078400
     25 C21          7.9470     0.9880    -9.6700 c3         5 MOL      -0.083733
     26 C22          7.2780    -0.2660   -10.1720 c3         5 MOL       0.132733
     27 C23          7.6340    -2.3920   -10.8370 c3         5 MOL       0.127067
     28 C24          8.7460    -3.2840   -11.0340 c3         5 MOL       0.126067
     29 C25          9.4100    -5.2640   -11.3230 c3         5 MOL       0.105733
     30 C26          9.1510    -6.6660   -11.4840 c3         5 MOL       0.117067
     31 C27         10.7590    -8.3280   -11.4580 c3         5 MOL       0.115400
     32 C28         12.1680    -8.1690   -11.3020 c3         5 MOL       0.105067
     33 C29         14.0180    -9.1240   -11.3840 c3         5 MOL       0.105400
     34 C30         14.6270   -10.4220   -11.6350 c3         5 MOL       0.052333
     35 C31        -11.4380    10.5230    -5.8270 c3         5 MOL      -0.105400
     36 C32        -12.2250    11.7620    -5.5520 c3         5 MOL      -0.077400
     37 C33        -13.6340    11.3290    -5.5440 c3         5 MOL      -0.079067
     38 C34        -14.5410    12.4740    -5.2510 c3         5 MOL      -0.079400
     39 C35        -15.8730    11.8320    -5.2710 c3         5 MOL      -0.079400
     40 C36        -16.9650    12.7860    -4.9680 c3         5 MOL      -0.079400
     41 C37        -18.1670    11.9110    -5.0310 c3         5 MOL      -0.079400
     42 C38        -19.4040    12.6610    -4.7290 c3         5 MOL      -0.078400
     43 C39        -20.4900    11.6370    -4.8340 c3         5 MOL      -0.078400
     44 C40        -21.7880    12.2820    -4.5430 c3         5 MOL      -0.083733
     45 C41        -22.8530    11.2420    -4.6760 c3         5 MOL       0.132733
     46 C42        -25.1170    11.1060    -4.5870 c3         5 MOL       0.127067
     47 C43        -26.2080    12.0000    -4.3320 c3         5 MOL       0.126067
     48 C44        -28.3000    12.1800    -4.4320 c3         5 MOL       0.105733
     49 C45        -29.4920    11.5280    -4.7930 c3         5 MOL       0.117067
     50 C46        -31.5570    12.3900    -4.9640 c3         5 MOL       0.115400
     51 C47        -32.0320    13.7030    -4.7290 c3         5 MOL       0.105067
     52 C48        -33.8950    14.7360    -4.6970 c3         5 MOL       0.105400
     53 C49        -35.2860    14.3560    -4.9320 c3         5 MOL       0.052333
     54 C50         -6.5990     1.7050    -8.4280 c3         5 MOL      -0.105400
     55 C51         -7.3580     0.4370    -8.6160 c3         5 MOL      -0.077400
     56 C52         -6.4610    -0.7640    -8.7500 c3         5 MOL      -0.079067
     57 C53         -7.4550    -1.8650    -8.9350 c3         5 MOL      -0.079400
     58 C54         -6.8520    -3.2220    -9.1440 c3         5 MOL      -0.079400
     59 C55         -8.0870    -4.0560    -9.3270 c3         5 MOL      -0.079400
     60 C56         -7.8180    -5.4930    -9.6300 c3         5 MOL      -0.079400
     61 C57         -9.2130    -6.0470    -9.8090 c3         5 MOL      -0.078400
     62 C58         -9.2080    -7.4860   -10.2150 c3         5 MOL      -0.078400
     63 C59        -10.6670    -7.8510   -10.3990 c3         5 MOL      -0.083733
     64 C60        -10.7660    -9.2540   -10.9000 c3         5 MOL       0.132733
     65 C61        -12.1870   -10.7450   -11.7260 c3         5 MOL       0.127067
     66 C62        -13.5850   -11.1300   -11.9970 c3         5 MOL       0.126067
     67 C63        -14.3330   -13.0080   -13.0530 c3         5 MOL       0.105733
     68 C64        -13.5410   -14.0090   -13.6690 c3         5 MOL       0.117067
     69 C65        -13.6090   -15.8690   -14.7020 c3         5 MOL       0.115400
     70 C66        -14.4980   -16.8860   -15.0630 c3         5 MOL       0.105067
     71 C67        -14.1810   -18.9400   -15.7600 c3         5 MOL       0.105400
     72 C68        -12.9820   -19.7590   -16.1120 c3         5 MOL       0.052333
     73 O           -7.6710    11.0280    -7.1120 o          5 MOL      -0.607433
     74 O1          -8.8810     4.7170    -6.9320 o          5 MOL      -0.607433
     75 O2          -3.0530     8.6530    -6.1600 o          5 MOL      -0.607433
     76 O3           8.2440    -1.1990   -10.4910 os         5 MOL      -0.428267
     77 O4           8.2890    -4.5590   -11.3110 os         5 MOL      -0.424267
     78 O5          10.4460    -7.0230   -11.3960 os         5 MOL      -0.417933
     79 O6          12.7080    -9.3520   -11.3560 os         5 MOL      -0.419600
     80 O8         -24.0470    11.9080    -4.4120 os         5 MOL      -0.428267
     81 O9         -27.3390    11.3040    -4.5550 os         5 MOL      -0.424267
     82 O10        -30.2840    12.5800    -4.6530 os         5 MOL      -0.417933
     83 O11        -33.2930    13.6120    -5.0090 os         5 MOL      -0.419600
     84 O13        -12.1380    -9.5530   -11.1090 os         5 MOL      -0.428267
     85 O14        -13.3160   -12.2870   -12.6420 os         5 MOL      -0.424267
     86 O15        -14.3630   -14.9200   -14.1440 os         5 MOL      -0.417933
     87 O16        -13.6320   -17.7510   -15.5490 os         5 MOL      -0.419600
     88 H253        -5.0970     5.4650    -7.1780 ha         5 MOL       0.162000
     89 H254        -8.9320     7.3670    -7.1670 ha         5 MOL       0.162000
     90 H255        -5.3760     9.7140    -6.6590 ha         5 MOL       0.162000
     91 H250        -9.3650     8.8940    -5.5840 hn         5 MOL       0.312167
     92 H251        -6.2920     4.3520    -8.6580 hn         5 MOL       0.312167
     93 H252        -3.2770     6.0650    -7.9160 hn         5 MOL       0.312167
     94 H6          -1.2480     7.1580    -6.1170 h1         5 MOL       0.064367
     95 H7          -1.1920     7.9010    -7.7210 h1         5 MOL       0.064367
     96 H8          -0.6470     5.7490    -8.7320 hc         5 MOL       0.046200
     97 H9          -0.6970     4.9830    -7.1000 hc         5 MOL       0.046200
     98 H10          0.9290     6.6790    -6.2650 hc         5 MOL       0.043200
     99 H11          0.9730     7.4360    -7.8950 hc         5 MOL       0.043200
    100 H12          1.7090     5.3280    -8.8500 hc         5 MOL       0.041033
    101 H13          1.6740     4.5770    -7.2210 hc         5 MOL       0.041033
    102 H14          3.4180     6.1740    -6.4460 hc         5 MOL       0.040533
    103 H15          3.4470     6.9250    -8.0900 hc         5 MOL       0.040533
    104 H16          3.7040     4.7210    -9.0810 hc         5 MOL       0.039867
    105 H17          3.6820     3.9820    -7.4520 hc         5 MOL       0.039867
    106 H18          5.8570     5.0230    -6.9420 hc         5 MOL       0.040367
    107 H19          5.8760     5.7680    -8.5950 hc         5 MOL       0.040367
    108 H20          5.2510     3.5970    -9.5590 hc         5 MOL       0.039700
    109 H21          5.2370     2.8720    -7.9260 hc         5 MOL       0.039700
    110 H22          7.6600     3.0790    -7.8010 hc         5 MOL       0.041867
    111 H23          7.6790     3.8010    -9.4600 hc         5 MOL       0.041867
    112 H24          6.2010     1.9790   -10.2490 hc         5 MOL       0.040200
    113 H25          6.1850     1.2850    -8.5990 hc         5 MOL       0.040200
    114 H26          8.5440     0.7750    -8.7720 hc         5 MOL       0.055033
    115 H27          8.5740     1.4510   -10.4450 hc         5 MOL       0.055033
    116 H28          6.6580    -0.0410   -11.0540 h1         5 MOL       0.026867
    117 H29          6.6390    -0.6650    -9.3680 h1         5 MOL       0.026867
    118 H30          7.0290    -2.2940   -11.7510 h1         5 MOL       0.041867
    119 H31          7.0150    -2.7570   -10.0060 h1         5 MOL       0.041867
    120 H32          9.3230    -3.3050   -10.0970 h1         5 MOL       0.043533
    121 H33          9.3850    -2.9150   -11.8520 h1         5 MOL       0.043533
    122 H34          9.9240    -5.1250   -10.3600 h1         5 MOL       0.044700
    123 H35         10.0620    -4.9130   -12.1370 h1         5 MOL       0.044700
    124 H36          8.6970    -6.9040   -12.4600 h1         5 MOL       0.053533
    125 H37          8.5510    -7.0650   -10.6510 h1         5 MOL       0.053533
    126 H38         10.5160    -8.7720   -12.4340 h1         5 MOL       0.052033
    127 H39         10.3210    -8.9100   -10.6330 h1         5 MOL       0.052033
    128 H40         12.4010    -7.6800   -10.3430 h1         5 MOL       0.047867
    129 H41         12.5370    -7.5510   -12.1330 h1         5 MOL       0.047867
    130 H42         14.3780    -8.6750   -10.4400 h1         5 MOL       0.054533
    131 H43         14.2390    -8.4500   -12.2270 h1         5 MOL       0.054533
    132 H46         -9.8170    11.6580    -6.6120 h1         5 MOL       0.064367
    133 H47         -9.7560    11.3220    -4.8530 h1         5 MOL       0.064367
    134 H48        -11.6230     9.7820    -5.0370 hc         5 MOL       0.046200
    135 H49        -11.7230    10.1040    -6.8030 hc         5 MOL       0.046200
    136 H50        -12.0550    12.5120    -6.3380 hc         5 MOL       0.043200
    137 H51        -11.9470    12.1770    -4.5730 hc         5 MOL       0.043200
    138 H52        -13.7670    10.5620    -4.7690 hc         5 MOL       0.041033
    139 H53        -13.8900    10.9030    -6.5250 hc         5 MOL       0.041033
    140 H54        -14.4630    13.2540    -6.0220 hc         5 MOL       0.040533
    141 H55        -14.3250    12.8960    -4.2590 hc         5 MOL       0.040533
    142 H56        -15.8880    11.0330    -4.5160 hc         5 MOL       0.039867
    143 H57        -16.0440    11.3930    -6.2650 hc         5 MOL       0.039867
    144 H58        -17.0150    13.5880    -5.7180 hc         5 MOL       0.040367
    145 H59        -16.8420    13.2130    -3.9620 hc         5 MOL       0.040367
    146 H60        -18.0560    11.1010    -4.2960 hc         5 MOL       0.039700
    147 H61        -18.2420    11.4780    -6.0390 hc         5 MOL       0.039700
    148 H62        -19.5590    13.4660    -5.4620 hc         5 MOL       0.041867
    149 H63        -19.3640    13.0790    -3.7130 hc         5 MOL       0.041867
    150 H64        -20.3080    10.8290    -4.1120 hc         5 MOL       0.040200
    151 H65        -20.5020    11.2230    -5.8530 hc         5 MOL       0.040200
    152 H66        -21.9720    13.0900    -5.2650 hc         5 MOL       0.055033
    153 H67        -21.7860    12.6910    -3.5230 hc         5 MOL       0.055033
    154 H68        -22.6920    10.4230    -3.9570 h1         5 MOL       0.026867
    155 H69        -22.8510    10.8450    -5.7030 h1         5 MOL       0.026867
    156 H70        -25.1220    10.2620    -3.8840 h1         5 MOL       0.041867
    157 H71        -25.1650    10.7450    -5.6230 h1         5 MOL       0.041867
    158 H72        -26.1440    12.8410    -5.0390 h1         5 MOL       0.043533
    159 H73        -26.1700    12.3780    -3.2970 h1         5 MOL       0.043533
    160 H74        -28.1370    13.0180    -5.1280 h1         5 MOL       0.044700
    161 H75        -28.3640    12.5600    -3.4020 h1         5 MOL       0.044700
    162 H76        -29.7370    10.7050    -4.1050 h1         5 MOL       0.053533
    163 H77        -29.4460    11.1780    -5.8340 h1         5 MOL       0.053533
    164 H78        -32.0470    11.6640    -4.2970 h1         5 MOL       0.052033
    165 H79        -31.6960    12.1100    -6.0180 h1         5 MOL       0.052033
    166 H80        -31.5210    14.4300    -5.3790 h1         5 MOL       0.047867
    167 H81        -31.8730    13.9600    -3.6700 h1         5 MOL       0.047867
    168 H82        -33.5700    15.5840    -5.3260 h1         5 MOL       0.054533
    169 H83        -33.7300    14.9600    -3.6310 h1         5 MOL       0.054533
    170 H86         -8.2510     2.7670    -9.2640 h1         5 MOL       0.064367
    171 H87         -8.3510     2.5470    -7.4920 h1         5 MOL       0.064367
    172 H88         -6.0060     1.6640    -7.5040 hc         5 MOL       0.046200
    173 H89         -5.9440     1.8960    -9.2900 hc         5 MOL       0.046200
    174 H90         -7.9650     0.5250    -9.5280 hc         5 MOL       0.043200
    175 H91         -8.0210     0.2900    -7.7520 hc         5 MOL       0.043200
    176 H92         -5.8560    -0.9190    -7.8450 hc         5 MOL       0.041033
    177 H93         -5.8110    -0.6670    -9.6320 hc         5 MOL       0.041033
    178 H94         -8.0620    -1.6270    -9.8200 hc         5 MOL       0.040533
    179 H95         -8.1080    -1.9010    -8.0520 hc         5 MOL       0.040533
    180 H96         -6.2640    -3.5500    -8.2740 hc         5 MOL       0.039867
    181 H97         -6.2320    -3.2350   -10.0520 hc         5 MOL       0.039867
    182 H98         -8.6530    -3.6370   -10.1720 hc         5 MOL       0.040367
    183 H99         -8.7000    -3.9890    -8.4170 hc         5 MOL       0.040367
    184 H100        -7.2830    -5.9920    -8.8080 hc         5 MOL       0.039700
    185 H101        -7.2440    -5.5810   -10.5650 hc         5 MOL       0.039700
    186 H102        -9.7100    -5.4730   -10.6040 hc         5 MOL       0.041867
    187 H103        -9.7750    -5.9290    -8.8720 hc         5 MOL       0.041867
    188 H104        -8.7380    -8.1170    -9.4470 hc         5 MOL       0.040200
    189 H105        -8.6740    -7.5970   -11.1690 hc         5 MOL       0.040200
    190 H106       -11.1110    -7.1800   -11.1480 hc         5 MOL       0.055033
    191 H107       -11.2050    -7.7430    -9.4460 hc         5 MOL       0.055033
    192 H108       -10.3220    -9.9580   -10.1790 h1         5 MOL       0.026867
    193 H109       -10.2280    -9.3140   -11.8570 h1         5 MOL       0.026867
    194 H110       -11.7150   -11.5150   -11.0990 h1         5 MOL       0.041867
    195 H111       -11.6490   -10.6740   -12.6820 h1         5 MOL       0.041867
    196 H112       -14.0890   -10.4040   -12.6550 h1         5 MOL       0.043533
    197 H113       -14.1530   -11.2830   -11.0650 h1         5 MOL       0.043533
    198 H114       -14.9660   -12.4880   -13.7850 h1         5 MOL       0.044700
    199 H115       -14.9250   -13.4100   -12.2210 h1         5 MOL       0.044700
    200 H116       -12.8770   -14.4530   -12.9120 h1         5 MOL       0.053533
    201 H117       -12.9380   -13.5610   -14.4740 h1         5 MOL       0.053533
    202 H118       -12.8920   -16.2690   -13.9680 h1         5 MOL       0.052033
    203 H119       -13.0720   -15.4970   -15.5830 h1         5 MOL       0.052033
    204 H120       -15.2360   -16.5540   -15.8050 h1         5 MOL       0.047867
    205 H121       -14.9930   -17.2680   -14.1580 h1         5 MOL       0.047867
    206 H122       -14.9390   -18.9250   -16.5610 h1         5 MOL       0.054533
    207 H123       -14.6230   -19.3060   -14.8190 h1         5 MOL       0.054533
    208 N4          15.9680   -10.1770   -11.8060 n          5 MOL      -0.568567
    209 H124        14.2250   -10.8470   -12.5620 h1         5 MOL       0.068867
    210 H125        14.4360   -11.0970   -10.7920 h1         5 MOL       0.068867
    211 C69         16.3260    -9.6050   -12.9450 c          5 MOL       0.655767
    212 H45         16.6340   -10.2550   -11.0220 hn         5 MOL       0.314167
    213 O18         15.4910    -9.4260   -13.8380 o          5 MOL      -0.606767
    214 C70         17.7060    -9.2400   -13.1560 c3         5 MOL      -0.161400
    215 C71         18.3220   -10.5460   -13.5310 c3         5 MOL       0.136400
    216 H126        18.1710    -8.9000   -12.2210 hc         5 MOL       0.082867
    217 H127        17.8250    -8.5180   -13.9790 hc         5 MOL       0.082867
    218 O19         19.6850   -10.3870   -13.7290 os         5 MOL      -0.432600
    219 H128        18.1510   -11.2560   -12.7100 h1         5 MOL       0.040867
    220 H129        17.8490   -10.9280   -14.4500 h1         5 MOL       0.040867
    221 C72         20.1780   -11.6200   -13.9940 c3         5 MOL       0.127067
    222 C73         21.6280   -11.4970   -14.1600 c3         5 MOL       0.127067
    223 H130        19.9690   -12.2860   -13.1470 h1         5 MOL       0.044700
    224 H131        19.7240   -12.0290   -14.9060 h1         5 MOL       0.044700
    225 O20         22.0310   -12.7780   -14.3610 os         5 MOL      -0.433933
    226 H132        21.8790   -10.8540   -15.0190 h1         5 MOL       0.044200
    227 H133        22.0780   -11.0940   -13.2380 h1         5 MOL       0.044200
    228 C74         23.3420   -12.8020   -14.4360 c3         5 MOL       0.107733
    229 C75         23.6840   -14.1780   -14.5510 c3         5 MOL       0.125067
    230 H134        23.7040   -12.2410   -15.3100 h1         5 MOL       0.042700
    231 H135        23.7880   -12.3950   -13.5160 h1         5 MOL       0.042700
    232 O21         24.9910   -14.0380   -14.5730 os         5 MOL      -0.420600
    233 H136        23.3450   -14.7400   -13.6680 h1         5 MOL       0.057367
    234 H137        23.2880   -14.6220   -15.4770 h1         5 MOL       0.057367
    235 C76         25.6870   -15.1710   -14.6410 c3         5 MOL       0.119400
    236 C77         27.0050   -14.6150   -14.5980 c3         5 MOL       0.101067
    237 H138        25.5100   -15.7130   -15.5810 h1         5 MOL       0.051700
    238 H139        25.5120   -15.8240   -13.7730 h1         5 MOL       0.051700
    239 O22         27.7440   -15.6610   -14.6540 os         5 MOL      -0.433600
    240 H140        27.1710   -13.9690   -15.4630 h1         5 MOL       0.057033
    241 H141        27.1460   -14.0630   -13.6680 h1         5 MOL       0.057033
    242 C78         29.0790   -15.4340   -14.6770 c3         5 MOL       0.106400
    243 C79         29.4590   -16.8370   -14.8410 c3         5 MOL       0.196467
    244 H244        29.4710   -15.0070   -13.7540 h1         5 MOL       0.058200
    245 H142        29.3800   -14.8170   -15.5490 h1         5 MOL       0.058200
    246 N5          30.7990   -17.0150   -14.9320 nh         5 MOL      -0.732600
    247 H143        29.0720   -17.4160   -13.9890 h1         5 MOL       0.075867
    248 H144        28.9890   -17.2270   -15.7560 h1         5 MOL       0.075867
    249 H145        31.3660   -16.2110   -14.8380 hn         5 MOL       0.445800
    250 N6         -36.0530    15.3550    -4.5200 n          5 MOL      -0.568567
    251 H146       -35.4390    14.1270    -5.9930 h1         5 MOL       0.068867
    252 H147       -35.4960    13.4780    -4.3070 h1         5 MOL       0.068867
    253 C81        -36.1920    15.5100    -3.2160 c          5 MOL       0.655767
    254 H148       -36.5370    15.9410    -5.1740 hn         5 MOL       0.314167
    255 O23        -35.6160    14.7490    -2.4280 o          5 MOL      -0.606767
    256 C82        -37.0940    16.5120    -2.7350 c3         5 MOL      -0.161400
    257 C83        -38.4020    15.7890    -2.8250 c3         5 MOL       0.136400
    258 H149       -36.8950    16.7950    -1.6900 hc         5 MOL       0.082867
    259 H150       -37.1260    17.3740    -3.4150 hc         5 MOL       0.082867
    260 O24        -39.4450    16.6330    -2.4520 os         5 MOL      -0.432600
    261 H151       -38.5420    15.4670    -3.8680 h1         5 MOL       0.040867
    262 H152       -38.3760    14.9040    -2.1710 h1         5 MOL       0.040867
    263 C84        -40.6030    15.9340    -2.6000 c3         5 MOL       0.127067
    264 C85        -41.7150    16.8380    -2.2840 c3         5 MOL       0.127067
    265 H153       -40.7020    15.6010    -3.6400 h1         5 MOL       0.044700
    266 H154       -40.6170    15.0630    -1.9310 h1         5 MOL       0.044700
    267 O25        -42.8110    16.0720    -2.5120 os         5 MOL      -0.433933
    268 H155       -41.6720    17.1850    -1.2390 h1         5 MOL       0.044200
    269 H156       -41.6990    17.6980    -2.9720 h1         5 MOL       0.044200
    270 C86        -43.8850    16.8190    -2.3960 c3         5 MOL       0.107733
    271 C87        -44.9570    15.9560    -2.7390 c3         5 MOL       0.125067
    272 H157       -44.0060    17.2030    -1.3740 h1         5 MOL       0.042700
    273 H158       -43.8500    17.6540    -3.1120 h1         5 MOL       0.042700
    274 O26        -45.9470    16.8290    -2.6500 os         5 MOL      -0.420600
    275 H159       -44.8360    15.5820    -3.7670 h1         5 MOL       0.057367
    276 H84        -45.0550    15.1240    -2.0260 h1         5 MOL       0.057367
    277 C88        -47.1440    16.3430    -2.9660 c3         5 MOL       0.119400
    278 C89        -47.9130    17.5210    -2.8670 c3         5 MOL       0.101067
    279 H85        -47.1780    15.9600    -3.9920 h1         5 MOL       0.051700
    280 H180       -47.4860    15.5780    -2.2550 h1         5 MOL       0.051700
    281 O27        -49.0970    17.0780    -3.2030 os         5 MOL      -0.433600
    282 H192       -47.8770    17.9010    -1.8370 h1         5 MOL       0.057033
    283 H193       -47.5670    18.2830    -3.5650 h1         5 MOL       0.057033
    284 C90        -50.0550    18.0320    -3.0870 c3         5 MOL       0.106400
    285 C91        -51.2930    17.3400    -3.5280 c3         5 MOL       0.196467
    286 H194       -50.1440    18.3720    -2.0430 h1         5 MOL       0.058200
    287 H195       -49.8280    18.8870    -3.7510 h1         5 MOL       0.058200
    288 N7         -52.3350    18.2930    -3.4730 nh         5 MOL      -0.732600
    289 H196       -51.1360    17.0200    -4.5650 h1         5 MOL       0.075867
    290 H197       -51.4920    16.4760    -2.9080 h1         5 MOL       0.075867
    291 H198       -52.2170    19.0760    -4.0600 hn         5 MOL       0.445800
    292 N8         -13.3910   -21.0320   -16.1810 n          5 MOL      -0.568567
    293 H160       -12.5460   -19.4020   -17.0550 h1         5 MOL       0.068867
    294 H161       -12.2610   -19.6720   -15.2880 h1         5 MOL       0.068867
    295 C92        -13.5350   -21.6560   -15.0280 c          5 MOL       0.655767
    296 H162       -13.5790   -21.4800   -17.0580 hn         5 MOL       0.314167
    297 O28        -13.2790   -21.0700   -13.9730 o          5 MOL      -0.606767
    298 C93        -13.9780   -23.0150   -15.0060 c3         5 MOL      -0.161400
    299 C94        -12.7440   -23.8490   -15.1490 c3         5 MOL       0.136400
    300 H163       -14.4640   -23.2620   -14.0520 hc         5 MOL       0.082867
    301 H164       -14.6230   -23.2180   -15.8700 hc         5 MOL       0.082867
    302 O29        -13.1770   -25.1520   -15.1850 os         5 MOL      -0.432600
    303 H165       -12.2430   -23.5930   -16.0940 h1         5 MOL       0.040867
    304 H166       -12.0570   -23.6850   -14.3040 h1         5 MOL       0.040867
    305 C95        -12.1300   -25.9690   -15.4270 c3         5 MOL       0.127067
    306 C96        -12.7470   -27.3120   -15.5410 c3         5 MOL       0.127067
    307 H167       -11.3900   -25.9200   -14.6160 h1         5 MOL       0.044700
    308 H168       -11.6640   -25.6930   -16.3820 h1         5 MOL       0.044700
    309 O30        -11.7950   -28.2390   -15.8950 os         5 MOL      -0.433933
    310 H169       -13.2380   -27.5980   -14.5980 h1         5 MOL       0.044200
    311 H170       -13.4980   -27.2620   -16.3430 h1         5 MOL       0.044200
    312 C97        -12.5120   -29.3410   -16.1730 c3         5 MOL       0.107733
    313 C98        -11.6710   -30.3570   -16.7490 c3         5 MOL       0.125067
    314 H171       -13.0130   -29.7260   -15.2730 h1         5 MOL       0.042700
    315 H172       -13.2710   -29.0800   -16.9260 h1         5 MOL       0.042700
    316 O31        -12.6630   -31.2330   -17.0060 os         5 MOL      -0.420600
    317 H173       -11.2090   -29.9870   -17.6770 h1         5 MOL       0.057367
    318 H174       -10.9120   -30.7450   -16.0510 h1         5 MOL       0.057367
    319 C99        -12.3460   -32.3290   -17.7270 c3         5 MOL       0.119400
    320 C100       -13.6760   -32.8550   -17.8710 c3         5 MOL       0.101067
    321 H175       -11.6720   -33.0160   -17.1970 h1         5 MOL       0.051700
    322 H176       -11.9360   -32.0550   -18.7120 h1         5 MOL       0.051700
    323 O32        -13.5800   -33.9310   -18.6680 os         5 MOL      -0.433600
    324 H177       -14.1150   -33.1100   -16.9080 h1         5 MOL       0.057033
    325 H178       -14.2860   -32.0840   -18.3570 h1         5 MOL       0.057033
    326 C101       -14.8640   -34.3260   -19.0370 c3         5 MOL       0.106400
    327 C102       -14.7420   -35.4570   -20.0150 c3         5 MOL       0.196467
    328 H179       -15.3840   -33.4850   -19.5200 h1         5 MOL       0.058200
    329 H199       -15.4260   -34.6470   -18.1460 h1         5 MOL       0.058200
    330 N10        -16.0890   -35.8470   -20.3620 nh         5 MOL      -0.732600
    331 H181       -14.1720   -35.1450   -20.8850 h1         5 MOL       0.075867
    332 H182       -14.2300   -36.2840   -19.5130 h1         5 MOL       0.075867
    333 H183       -16.6100   -36.2310   -19.6220 hn         5 MOL       0.445800
    334 C103       -16.7150   -35.8060   -21.6480 ca         5 MOL       0.308933
    335 C104       -16.2390   -35.1620   -22.9610 ca         5 MOL      -0.282867
    336 C105       -16.9440   -35.3140   -24.0490 ca         5 MOL       0.039667
    337 H184       -16.6400   -34.8650   -24.9670 ha         5 MOL       0.199333
    338 C106       -18.1020   -35.9960   -23.9840 ca         5 MOL      -0.255867
    339 C107       -18.5770   -36.5400   -22.8790 ca         5 MOL       0.008667
    340 H185       -19.4940   -37.0470   -22.9000 ha         5 MOL       0.178333
    341 C108       -17.8610   -36.4500   -21.6830 ca         5 MOL      -0.238333
    342 H44        -18.2320   -36.9080   -20.8230 ha         5 MOL       0.155000
    343 N11        -18.7790   -36.0990   -24.9960 no         5 MOL       0.327533
    344 O33        -19.9090   -36.6640   -24.8690 o          5 MOL      -0.207500
    345 O34        -18.4380   -35.7140   -26.0510 o          5 MOL      -0.207500
    346 N12        -15.2030   -34.3990   -23.1250 no         5 MOL       0.321533
    347 O35        -14.7780   -34.1070   -24.3080 o          5 MOL      -0.214000
    348 O36        -14.7540   -33.8350   -22.2040 o          5 MOL      -0.214000
    349 C109        31.4260   -18.2530   -15.1660 ca         5 MOL       0.308933
    350 C110        30.8080   -19.6800   -15.3540 ca         5 MOL      -0.282867
    351 C111        31.6170   -20.6780   -15.5610 ca         5 MOL       0.039667
    352 H186        31.2410   -21.6660   -15.6940 ha         5 MOL       0.199333
    353 C112        32.9530   -20.4580   -15.6110 ca         5 MOL      -0.255867
    354 C80         33.5210   -19.2730   -15.4590 ca         5 MOL       0.008667
    355 H187        34.5800   -19.1820   -15.5130 ha         5 MOL       0.178333
    356 C114        32.7340   -18.1440   -15.2300 ca         5 MOL      -0.238333
    357 H188        33.1830   -17.2100   -15.1110 ha         5 MOL       0.155000
    358 N13         33.6880   -21.4140   -15.8110 no         5 MOL       0.327533
    359 O37         34.9400   -21.1820   -15.8620 o          5 MOL      -0.207500
    360 O38         33.2950   -22.5080   -15.9570 o          5 MOL      -0.207500
    361 N14         29.5030   -20.0640   -15.3350 no         5 MOL       0.321533
    362 O39         29.1860   -21.3210   -15.4940 o          5 MOL      -0.214000
    363 O40         28.6440   -19.3010   -15.1880 o          5 MOL      -0.214000
    364 C115       -53.5710    18.1960    -2.7580 ca         5 MOL       0.308933
    365 C116       -54.0140    17.2200    -1.6440 ca         5 MOL      -0.282867
    366 C117       -55.2340    17.2790    -1.1920 ca         5 MOL       0.039667
    367 H189       -55.5580    16.6260    -0.4130 ha         5 MOL       0.199333
    368 C118       -56.0730    18.2220    -1.6800 ca         5 MOL      -0.255867
    369 C119       -55.7410    19.1010    -2.6050 ca         5 MOL       0.008667
    370 H190       -56.4500    19.8130    -2.9260 ha         5 MOL       0.178333
    371 C120       -54.4570    19.0820    -3.1630 ca         5 MOL      -0.238333
    372 H191       -54.2080    19.7600    -3.9120 ha         5 MOL       0.155000
    373 N15        -53.2750    16.3370    -1.0090 no         5 MOL       0.321533
    374 O41        -51.9910    16.4880    -0.9820 o          5 MOL      -0.214000
    375 O42        -53.7610    15.5300    -0.3180 o          5 MOL      -0.214000
    376 N16        -57.1990    18.2850    -1.2210 no         5 MOL       0.327533
    377 O43        -57.6530    17.4280    -0.3370 o          5 MOL      -0.207500
    378 O44        -57.8890    19.1410    -1.6050 o          5 MOL      -0.207500
@<TRIPOS>BOND
     1     1    10 1   
     2     1    13 1   
     3     1    91 1   
     4     2    11 1   
     5     2    12 1   
     6     2    92 1   
     7     3    14 1   
     8     3    15 1   
     9     3    93 1   
    10     4     5 ar  
    11     4     9 ar  
    12     4    15 1   
    13     5     6 ar  
    14     5    88 1   
    15     6     7 ar  
    16     6    11 1   
    17     7     8 ar  
    18     7    89 1   
    19     8     9 ar  
    20     8    10 1   
    21     9    90 1   
    22    10    73 2   
    23    11    74 2   
    24    12    54 1   
    25    12   170 1   
    26    12   171 1   
    27    13    35 1   
    28    13   132 1   
    29    13   133 1   
    30    14    16 1   
    31    14    94 1   
    32    14    95 1   
    33    15    75 2   
    34    16    17 1   
    35    16    96 1   
    36    16    97 1   
    37    17    18 1   
    38    17    98 1   
    39    17    99 1   
    40    18    19 1   
    41    18   100 1   
    42    18   101 1   
    43    19    20 1   
    44    19   102 1   
    45    19   103 1   
    46    20    21 1   
    47    20   104 1   
    48    20   105 1   
    49    21    22 1   
    50    21   106 1   
    51    21   107 1   
    52    22    23 1   
    53    22   108 1   
    54    22   109 1   
    55    23    24 1   
    56    23   110 1   
    57    23   111 1   
    58    24    25 1   
    59    24   112 1   
    60    24   113 1   
    61    25    26 1   
    62    25   114 1   
    63    25   115 1   
    64    26    76 1   
    65    26   116 1   
    66    26   117 1   
    67    27    28 1   
    68    27    76 1   
    69    27   118 1   
    70    27   119 1   
    71    28    77 1   
    72    28   120 1   
    73    28   121 1   
    74    29    30 1   
    75    29    77 1   
    76    29   122 1   
    77    29   123 1   
    78    30    78 1   
    79    30   124 1   
    80    30   125 1   
    81    31    32 1   
    82    31    78 1   
    83    31   126 1   
    84    31   127 1   
    85    32    79 1   
    86    32   128 1   
    87    32   129 1   
    88    33    34 1   
    89    33    79 1   
    90    33   130 1   
    91    33   131 1   
    92    34   208 1   
    93    34   209 1   
    94    34   210 1   
    95    35    36 1   
    96    35   134 1   
    97    35   135 1   
    98    36    37 1   
    99    36   136 1   
   100    36   137 1   
   101    37    38 1   
   102    37   138 1   
   103    37   139 1   
   104    38    39 1   
   105    38   140 1   
   106    38   141 1   
   107    39    40 1   
   108    39   142 1   
   109    39   143 1   
   110    40    41 1   
   111    40   144 1   
   112    40   145 1   
   113    41    42 1   
   114    41   146 1   
   115    41   147 1   
   116    42    43 1   
   117    42   148 1   
   118    42   149 1   
   119    43    44 1   
   120    43   150 1   
   121    43   151 1   
   122    44    45 1   
   123    44   152 1   
   124    44   153 1   
   125    45    80 1   
   126    45   154 1   
   127    45   155 1   
   128    46    47 1   
   129    46    80 1   
   130    46   156 1   
   131    46   157 1   
   132    47    81 1   
   133    47   158 1   
   134    47   159 1   
   135    48    49 1   
   136    48    81 1   
   137    48   160 1   
   138    48   161 1   
   139    49    82 1   
   140    49   162 1   
   141    49   163 1   
   142    50    51 1   
   143    50    82 1   
   144    50   164 1   
   145    50   165 1   
   146    51    83 1   
   147    51   166 1   
   148    51   167 1   
   149    52    53 1   
   150    52    83 1   
   151    52   168 1   
   152    52   169 1   
   153    53   250 1   
   154    53   251 1   
   155    53   252 1   
   156    54    55 1   
   157    54   172 1   
   158    54   173 1   
   159    55    56 1   
   160    55   174 1   
   161    55   175 1   
   162    56    57 1   
   163    56   176 1   
   164    56   177 1   
   165    57    58 1   
   166    57   178 1   
   167    57   179 1   
   168    58    59 1   
   169    58   180 1   
   170    58   181 1   
   171    59    60 1   
   172    59   182 1   
   173    59   183 1   
   174    60    61 1   
   175    60   184 1   
   176    60   185 1   
   177    61    62 1   
   178    61   186 1   
   179    61   187 1   
   180    62    63 1   
   181    62   188 1   
   182    62   189 1   
   183    63    64 1   
   184    63   190 1   
   185    63   191 1   
   186    64    84 1   
   187    64   192 1   
   188    64   193 1   
   189    65    66 1   
   190    65    84 1   
   191    65   194 1   
   192    65   195 1   
   193    66    85 1   
   194    66   196 1   
   195    66   197 1   
   196    67    68 1   
   197    67    85 1   
   198    67   198 1   
   199    67   199 1   
   200    68    86 1   
   201    68   200 1   
   202    68   201 1   
   203    69    70 1   
   204    69    86 1   
   205    69   202 1   
   206    69   203 1   
   207    70    87 1   
   208    70   204 1   
   209    70   205 1   
   210    71    72 1   
   211    71    87 1   
   212    71   206 1   
   213    71   207 1   
   214    72   292 1   
   215    72   293 1   
   216    72   294 1   
   217   208   211 1   
   218   208   212 1   
   219   211   213 2   
   220   211   214 1   
   221   214   215 1   
   222   214   216 1   
   223   214   217 1   
   224   215   218 1   
   225   215   219 1   
   226   215   220 1   
   227   218   221 1   
   228   221   222 1   
   229   221   223 1   
   230   221   224 1   
   231   222   225 1   
   232   222   226 1   
   233   222   227 1   
   234   225   228 1   
   235   228   229 1   
   236   228   230 1   
   237   228   231 1   
   238   229   232 1   
   239   229   233 1   
   240   229   234 1   
   241   232   235 1   
   242   235   236 1   
   243   235   237 1   
   244   235   238 1   
   245   236   239 1   
   246   236   240 1   
   247   236   241 1   
   248   239   242 1   
   249   242   243 1   
   250   242   244 1   
   251   242   245 1   
   252   243   246 1   
   253   243   247 1   
   254   243   248 1   
   255   246   249 1   
   256   246   349 1   
   257   250   253 1   
   258   250   254 1   
   259   253   255 2   
   260   253   256 1   
   261   256   257 1   
   262   256   258 1   
   263   256   259 1   
   264   257   260 1   
   265   257   261 1   
   266   257   262 1   
   267   260   263 1   
   268   263   264 1   
   269   263   265 1   
   270   263   266 1   
   271   264   267 1   
   272   264   268 1   
   273   264   269 1   
   274   267   270 1   
   275   270   271 1   
   276   270   272 1   
   277   270   273 1   
   278   271   274 1   
   279   271   275 1   
   280   271   276 1   
   281   274   277 1   
   282   277   278 1   
   283   277   279 1   
   284   277   280 1   
   285   278   281 1   
   286   278   282 1   
   287   278   283 1   
   288   281   284 1   
   289   284   285 1   
   290   284   286 1   
   291   284   287 1   
   292   285   288 1   
   293   285   289 1   
   294   285   290 1   
   295   288   291 1   
   296   288   364 1   
   297   292   295 1   
   298   292   296 1   
   299   295   297 2   
   300   295   298 1   
   301   298   299 1   
   302   298   300 1   
   303   298   301 1   
   304   299   302 1   
   305   299   303 1   
   306   299   304 1   
   307   302   305 1   
   308   305   306 1   
   309   305   307 1   
   310   305   308 1   
   311   306   309 1   
   312   306   310 1   
   313   306   311 1   
   314   309   312 1   
   315   312   313 1   
   316   312   314 1   
   317   312   315 1   
   318   313   316 1   
   319   313   317 1   
   320   313   318 1   
   321   316   319 1   
   322   319   320 1   
   323   319   321 1   
   324   319   322 1   
   325   320   323 1   
   326   320   324 1   
   327   320   325 1   
   328   323   326 1   
   329   326   327 1   
   330   326   328 1   
   331   326   329 1   
   332   327   330 1   
   333   327   331 1   
   334   327   332 1   
   335   330   333 1   
   336   330   334 1   
   337   334   335 ar  
   338   334   341 ar  
   339   335   336 ar  
   340   335   346 1   
   341   336   337 1   
   342   336   338 ar  
   343   338   339 ar  
   344   338   343 1   
   345   339   340 1   
   346   339   341 ar  
   347   341   342 1   
   348   343   344 1   
   349   343   345 1   
   350   346   347 1   
   351   346   348 1   
   352   349   350 ar  
   353   349   356 ar  
   354   350   351 ar  
   355   350   361 1   
   356   351   352 1   
   357   351   353 ar  
   358   353   354 ar  
   359   353   358 1   
   360   354   355 1   
   361   354   356 ar  
   362   356   357 1   
   363   358   359 1   
   364   358   360 1   
   365   361   362 1   
   366   361   363 1   
   367   364   365 ar  
   368   364   371 ar  
   369   365   366 ar  
   370   365   373 1   
   371   366   367 1   
   372   366   368 ar  
   373   368   369 ar  
   374   368   376 1   
   375   369   370 1   
   376   369   371 ar  
   377   371   372 1   
   378   373   374 1   
   379   373   375 1   
   380   376   377 1   
   381   376   378 1   
@<TRIPOS>SUBSTRUCTURE
     1 MOL         1 TEMP              0 ****  ****    0 ROOT
