@<TRIPOS>MOLECULE
MOL
  219   219     1     0     0
SMALL
bcc


@<TRIPOS>ATOM
      1 N           -6.0940    12.2230   -10.1730 n          6 MOL      -0.559233
      2 N1          -6.7810     5.8600   -11.4230 n          6 MOL      -0.559233
      3 N2          -1.0060     8.2890   -10.8120 n          6 MOL      -0.559233
      4 C           -3.2890     8.9890   -10.4070 ca         6 MOL      -0.154600
      5 C1          -3.8120     7.6890   -10.4650 ca         6 MOL      -0.038333
      6 C2          -5.1870     7.4630   -10.5790 ca         6 MOL      -0.154600
      7 C3          -6.0530     8.5650   -10.6100 ca         6 MOL      -0.038333
      8 C4          -5.5680     9.8780   -10.5380 ca         6 MOL      -0.154600
      9 C5          -4.1790    10.0730   -10.4360 ca         6 MOL      -0.038333
     10 C6          -6.5390    11.0360   -10.6070 c          6 MOL       0.669367
     11 C7          -5.7120     6.0520   -10.6430 c          6 MOL       0.669367
     12 C8          -7.3900     4.5750   -11.5250 c3         6 MOL       0.084667
     13 C9          -6.9880    13.3320   -10.2050 c3         6 MOL       0.084667
     14 C10          0.4150     8.4050   -10.7330 c3         6 MOL       0.084667
     15 C11         -1.8030     9.2300   -10.2890 c          6 MOL       0.669367
     16 C12          1.0420     7.0550   -11.0980 c3         6 MOL      -0.105067
     17 C13          2.5700     7.1320   -11.0250 c3         6 MOL      -0.077400
     18 C14          3.1170     5.7470   -11.3940 c3         6 MOL      -0.079067
     19 C15          4.6500     5.7210   -11.3420 c3         6 MOL      -0.079400
     20 C16          5.0910     4.3030   -11.7160 c3         6 MOL      -0.079400
     21 C17          6.6170     4.1750   -11.6860 c3         6 MOL      -0.079400
     22 C18          6.9570     2.7300   -12.0660 c3         6 MOL      -0.079400
     23 C19          8.4730     2.5000   -12.0590 c3         6 MOL      -0.078400
     24 C20          8.7200     1.0400   -12.4410 c3         6 MOL      -0.078400
     25 C21         10.2190     0.7340   -12.4520 c3         6 MOL      -0.084400
     26 C22         10.3920    -0.7390   -12.8370 c3         6 MOL       0.133400
     27 C23         11.8830    -2.4220   -13.2070 c3         6 MOL       0.128400
     28 C24         13.3050    -2.8110   -13.2380 c3         6 MOL       0.130400
     29 C25         14.3830    -4.7250   -13.6810 c3         6 MOL       0.130400
     30 C26         13.9760    -6.0370   -14.0410 c3         6 MOL       0.129400
     31 C27         14.9320    -7.9570   -14.4860 c3         6 MOL       0.130400
     32 C28         16.2650    -8.4610   -14.5460 c3         6 MOL       0.128400
     33 C29         17.2930   -10.3880   -14.9620 c3         6 MOL       0.094400
     34 C30         16.9020   -11.7700   -15.3060 c3         6 MOL       0.125400
     35 C31         -8.9130     4.7460   -11.5980 c3         6 MOL      -0.105067
     36 C32         -9.5670     3.3660   -11.7120 c3         6 MOL      -0.077400
     37 C33        -11.0910     3.5320   -11.7820 c3         6 MOL      -0.079067
     38 C34        -11.7390     2.1480   -11.8960 c3         6 MOL      -0.079400
     39 C35        -13.2630     2.2950   -11.9660 c3         6 MOL      -0.079400
     40 C36        -13.8780     0.8980   -12.0810 c3         6 MOL      -0.079400
     41 C37        -15.4050     0.9990   -12.1540 c3         6 MOL      -0.079400
     42 C38        -15.9700    -0.4240   -12.2740 c3         6 MOL      -0.078400
     43 C39        -17.5030    -0.3980   -12.3550 c3         6 MOL      -0.078400
     44 C40        -17.9880    -1.8500   -12.4780 c3         6 MOL      -0.084400
     45 C41        -19.5230    -1.9130   -12.5700 c3         6 MOL       0.133400
     46 C42        -21.2880    -3.4240   -12.7870 c3         6 MOL       0.128400
     47 C43        -21.5680    -4.8730   -12.9160 c3         6 MOL       0.130400
     48 C44        -23.2350    -6.2920   -13.1520 c3         6 MOL       0.130400
     49 C45        -24.6610    -6.3670   -13.2640 c3         6 MOL       0.129400
     50 C46        -26.0740    -8.0660   -13.5290 c3         6 MOL       0.130400
     51 C47        -25.9010    -9.4840   -13.6520 c3         6 MOL       0.128400
     52 C48        -27.0820   -11.3350   -13.9130 c3         6 MOL       0.094400
     53 C49        -28.4980   -11.7350   -14.0440 c3         6 MOL       0.125400
     54 C50         -6.3540    14.6430    -9.7510 c3         6 MOL      -0.105067
     55 C51         -7.4720    15.6850    -9.8130 c3         6 MOL      -0.077400
     56 C52         -6.9840    17.0590    -9.3710 c3         6 MOL      -0.079067
     57 C53         -8.1920    17.9970    -9.4360 c3         6 MOL      -0.079400
     58 C54         -7.8140    19.4090    -8.9950 c3         6 MOL      -0.079400
     59 C55         -9.0820    20.2630    -9.0520 c3         6 MOL      -0.079400
     60 C56         -8.7750    21.6900    -8.6050 c3         6 MOL      -0.079400
     61 C57        -10.0790    22.4990    -8.6450 c3         6 MOL      -0.078400
     62 C58         -9.8100    23.9320    -8.1890 c3         6 MOL      -0.078400
     63 C59        -11.1290    24.7130    -8.2110 c3         6 MOL      -0.084400
     64 C60        -10.8680    26.1500    -7.7480 c3         6 MOL       0.133400
     65 C61        -11.8520    28.1710    -7.3330 c3         6 MOL       0.128400
     66 C62        -13.1230    28.9150    -7.3120 c3         6 MOL       0.130400
     67 C63        -13.6890    31.0120    -6.7830 c3         6 MOL       0.130400
     68 C64        -12.9700    32.1580    -6.3600 c3         6 MOL       0.129400
     69 C65        -13.4050    34.2400    -5.8500 c3         6 MOL       0.130400
     70 C66        -14.5610    35.0710    -5.7760 c3         6 MOL       0.128400
     71 C67        -15.0480    37.1760    -5.2520 c3         6 MOL       0.094400
     72 C68        -14.3080    38.3770    -4.8180 c3         6 MOL       0.125400
     73 O           -7.6840    10.8820   -11.0390 o          6 MOL      -0.607433
     74 O1          -5.1710     5.1430   -10.0120 o          6 MOL      -0.607433
     75 O2          -1.3600    10.2430    -9.7450 o          6 MOL      -0.607433
     76 O3          11.7800    -1.0910   -12.8620 os         6 MOL      -0.427600
     77 O4          13.2130    -4.1310   -13.5880 os         6 MOL      -0.430600
     78 O5          15.1270    -6.6840   -14.1490 os         6 MOL      -0.430600
     79 O6          16.0890    -9.7260   -14.8750 os         6 MOL      -0.425600
     80 O7          18.0500   -12.5380   -15.4100 oh         6 MOL      -0.592800
     81 O8         -19.9020    -3.2890   -12.6890 os         6 MOL      -0.427600
     82 O9         -22.9450    -5.0010   -13.0200 os         6 MOL      -0.430600
     83 O10        -24.8070    -7.6870   -13.3950 os         6 MOL      -0.430600
     84 O11        -27.1230    -9.9600   -13.7930 os         6 MOL      -0.425600
     85 O12        -28.5520   -13.1200   -14.1650 oh         6 MOL      -0.592800
     86 O13        -12.0980    26.8850    -7.7480 os         6 MOL      -0.427600
     87 O14        -12.7070    30.1460    -6.8910 os         6 MOL      -0.430600
     88 O15        -13.9180    33.0740    -6.2350 os         6 MOL      -0.430600
     89 O16        -14.0600    36.2300    -5.3980 os         6 MOL      -0.425600
     90 O17        -15.2140    39.4070    -4.6260 oh         6 MOL      -0.592800
     91 H253        -3.1480     6.8370   -10.4080 ha         6 MOL       0.161000
     92 H254        -7.1210     8.4010   -10.6840 ha         6 MOL       0.161000
     93 H255        -3.7720    11.0760   -10.4060 ha         6 MOL       0.161000
     94 H250        -5.1860    12.2470    -9.7350 hn         6 MOL       0.312167
     95 H251        -7.0300     6.6150   -12.0540 hn         6 MOL       0.312167
     96 H252        -1.4390     7.5540   -11.3470 hn         6 MOL       0.312167
     97 H6           0.7000     8.7090    -9.7150 h1         6 MOL       0.064033
     98 H7           0.7550     9.1790   -11.4360 h1         6 MOL       0.064033
     99 H8           0.7430     6.7790   -12.1200 hc         6 MOL       0.046200
    100 H9           0.6860     6.2890   -10.3940 hc         6 MOL       0.046200
    101 H10          2.8810     7.3970   -10.0040 hc         6 MOL       0.043200
    102 H11          2.9420     7.8860   -11.7330 hc         6 MOL       0.043200
    103 H12          2.7860     5.4890   -12.4100 hc         6 MOL       0.041367
    104 H13          2.7220     5.0070   -10.6840 hc         6 MOL       0.041367
    105 H14          4.9960     5.9630   -10.3270 hc         6 MOL       0.040533
    106 H15          5.0660     6.4440   -12.0580 hc         6 MOL       0.040533
    107 H16          4.7290     4.0670   -12.7270 hc         6 MOL       0.040200
    108 H17          4.6580     3.5910   -10.9990 hc         6 MOL       0.040200
    109 H18          6.9920     4.3950   -10.6770 hc         6 MOL       0.040200
    110 H19          7.0670     4.8700   -12.4090 hc         6 MOL       0.040200
    111 H20          6.5640     2.5200   -13.0710 hc         6 MOL       0.039700
    112 H21          6.4870     2.0500   -11.3410 hc         6 MOL       0.039700
    113 H22          8.8780     2.6950   -11.0560 hc         6 MOL       0.041700
    114 H23          8.9580     3.1630   -12.7890 hc         6 MOL       0.041700
    115 H24          8.3040     0.8510   -13.4410 hc         6 MOL       0.040367
    116 H25          8.2230     0.3860   -11.7100 hc         6 MOL       0.040367
    117 H26         10.6410     0.9120   -11.4520 hc         6 MOL       0.054867
    118 H27         10.7250     1.3770   -13.1870 hc         6 MOL       0.054867
    119 H28          9.9540    -0.9060   -13.8330 h1         6 MOL       0.027700
    120 H29          9.8700    -1.3670   -12.0990 h1         6 MOL       0.027700
    121 H30         11.4450    -2.5870   -14.2020 h1         6 MOL       0.039700
    122 H31         11.3580    -3.0420   -12.4670 h1         6 MOL       0.039700
    123 H32         13.7690    -2.6900   -12.2460 h1         6 MOL       0.042367
    124 H33         13.8580    -2.2330   -13.9950 h1         6 MOL       0.042367
    125 H34         14.9160    -4.7330   -12.7210 h1         6 MOL       0.042200
    126 H35         15.0060    -4.2810   -14.4690 h1         6 MOL       0.042200
    127 H36         13.4340    -6.0180   -14.9980 h1         6 MOL       0.042700
    128 H37         13.3430    -6.4690   -13.2520 h1         6 MOL       0.042700
    129 H38         14.4410    -8.0430   -15.4670 h1         6 MOL       0.042700
    130 H39         14.3530    -8.4930   -13.7190 h1         6 MOL       0.042700
    131 H40         16.7490    -8.3680   -13.5630 h1         6 MOL       0.042200
    132 H41         16.8440    -7.9230   -15.3090 h1         6 MOL       0.042200
    133 H42         17.8200   -10.3680   -13.9950 h1         6 MOL       0.033700
    134 H43         17.9260    -9.9510   -15.7500 h1         6 MOL       0.033700
    135 H44         16.3580   -11.7690   -16.2610 h1         6 MOL       0.059200
    136 H45         16.2540   -12.1680   -14.5120 h1         6 MOL       0.059200
    137 H46         -7.1080     3.9630   -10.6550 h1         6 MOL       0.064033
    138 H47         -7.0470     4.0820   -12.4450 h1         6 MOL       0.064033
    139 H48         -9.1750     5.3510   -12.4780 hc         6 MOL       0.046200
    140 H49         -9.2700     5.2480   -10.6870 hc         6 MOL       0.046200
    141 H50         -9.3040     2.7620   -10.8320 hc         6 MOL       0.043200
    142 H51         -9.2080     2.8660   -12.6220 hc         6 MOL       0.043200
    143 H52        -11.3550     4.1370   -12.6610 hc         6 MOL       0.041367
    144 H53        -11.4490     4.0320   -10.8700 hc         6 MOL       0.041367
    145 H54        -11.4710     1.5440   -11.0180 hc         6 MOL       0.040533
    146 H55        -11.3790     1.6500   -12.8080 hc         6 MOL       0.040533
    147 H56        -13.5390     2.8940   -12.8450 hc         6 MOL       0.040200
    148 H57        -13.6300     2.7870   -11.0540 hc         6 MOL       0.040200
    149 H58        -13.5940     0.3010   -11.2030 hc         6 MOL       0.040200
    150 H59        -13.5020     0.4100   -12.9920 hc         6 MOL       0.040200
    151 H60        -15.6950     1.5910   -13.0350 hc         6 MOL       0.039700
    152 H61        -15.7890     1.4800   -11.2430 hc         6 MOL       0.039700
    153 H62        -15.6650    -1.0100   -11.3950 hc         6 MOL       0.041700
    154 H63        -15.5690    -0.8950   -13.1820 hc         6 MOL       0.041700
    155 H64        -17.8190     0.1760   -13.2370 hc         6 MOL       0.040367
    156 H65        -17.9180     0.0600   -11.4460 hc         6 MOL       0.040367
    157 H66        -17.6550    -2.4170   -11.5970 hc         6 MOL       0.054867
    158 H67        -17.5540    -2.2970   -13.3840 hc         6 MOL       0.054867
    159 H68        -19.8650    -1.3560   -13.4550 h1         6 MOL       0.027700
    160 H69        -19.9710    -1.4780   -11.6640 h1         6 MOL       0.027700
    161 H70        -21.6610    -2.8960   -13.6760 h1         6 MOL       0.039700
    162 H71        -21.7770    -3.0290   -11.8850 h1         6 MOL       0.039700
    163 H72        -21.1990    -5.4100   -12.0280 h1         6 MOL       0.042367
    164 H73        -21.0800    -5.2680   -13.8210 h1         6 MOL       0.042367
    165 H74        -22.9010    -6.8590   -12.2720 h1         6 MOL       0.042200
    166 H75        -22.7720    -6.7020   -14.0600 h1         6 MOL       0.042200
    167 H76        -25.0180    -5.8280   -14.1540 h1         6 MOL       0.042700
    168 H77        -25.1540    -5.9890   -12.3550 h1         6 MOL       0.042700
    169 H78        -26.5320    -7.6450   -14.4370 h1         6 MOL       0.042700
    170 H79        -26.6720    -7.8170   -12.6400 h1         6 MOL       0.042700
    171 H80        -25.4240    -9.8820   -12.7450 h1         6 MOL       0.042200
    172 H81        -25.2840    -9.7120   -14.5340 h1         6 MOL       0.042200
    173 H82        -26.6380   -11.7900   -13.0130 h1         6 MOL       0.033700
    174 H83        -26.5110   -11.6310   -14.8070 h1         6 MOL       0.033700
    175 H84        -28.9320   -11.2610   -14.9350 h1         6 MOL       0.059200
    176 H85        -29.0470   -11.4150   -13.1490 h1         6 MOL       0.059200
    177 H86         -7.8370    13.0960    -9.5470 h1         6 MOL       0.064033
    178 H87         -7.3800    13.4380   -11.2270 h1         6 MOL       0.064033
    179 H88         -5.5270    14.9220   -10.4190 hc         6 MOL       0.046200
    180 H89         -5.9870    14.5500    -8.7190 hc         6 MOL       0.046200
    181 H90         -8.2850    15.3660    -9.1450 hc         6 MOL       0.043200
    182 H91         -7.8520    15.7500   -10.8420 hc         6 MOL       0.043200
    183 H92         -6.1860    17.4110   -10.0410 hc         6 MOL       0.041367
    184 H93         -6.6080    17.0070    -8.3400 hc         6 MOL       0.041367
    185 H94         -8.9740    17.6130    -8.7660 hc         6 MOL       0.040533
    186 H95         -8.5770    18.0290   -10.4650 hc         6 MOL       0.040533
    187 H96         -7.0460    19.8210    -9.6660 hc         6 MOL       0.040200
    188 H97         -7.4320    19.3860    -7.9650 hc         6 MOL       0.040200
    189 H98         -9.8360    19.8290    -8.3790 hc         6 MOL       0.040200
    190 H99         -9.4740    20.2760   -10.0790 hc         6 MOL       0.040200
    191 H100        -8.0310    22.1390    -9.2790 hc         6 MOL       0.039700
    192 H101        -8.3830    21.6770    -7.5780 hc         6 MOL       0.039700
    193 H102       -10.8110    22.0350    -7.9690 hc         6 MOL       0.041700
    194 H103       -10.4790    22.5070    -9.6680 hc         6 MOL       0.041700
    195 H104        -9.0850    24.4070    -8.8660 hc         6 MOL       0.040367
    196 H105        -9.4080    23.9240    -7.1670 hc         6 MOL       0.040367
    197 H106       -11.8470    24.2320    -7.5300 hc         6 MOL       0.054867
    198 H107       -11.5380    24.7200    -9.2320 hc         6 MOL       0.054867
    199 H108       -10.1500    26.6290    -8.4310 h1         6 MOL       0.027700
    200 H109       -10.4510    26.1340    -6.7300 h1         6 MOL       0.027700
    201 H110       -11.1560    28.6640    -8.0260 h1         6 MOL       0.039700
    202 H111       -11.4230    28.1670    -6.3210 h1         6 MOL       0.039700
    203 H112       -13.8320    28.4650    -6.5980 h1         6 MOL       0.042367
    204 H113       -13.5700    28.9650    -8.3170 h1         6 MOL       0.042367
    205 H114       -14.4230    30.7080    -6.0230 h1         6 MOL       0.042200
    206 H115       -14.1820    31.1960    -7.7470 h1         6 MOL       0.042200
    207 H116       -12.2330    32.4440    -7.1250 h1         6 MOL       0.042700
    208 H117       -12.4690    31.9620    -5.4010 h1         6 MOL       0.042700
    209 H118       -12.6960    34.6320    -6.5950 h1         6 MOL       0.042700
    210 H119       -12.9220    34.1640    -4.8650 h1         6 MOL       0.042700
    211 H120       -15.2640    34.6750    -5.0310 h1         6 MOL       0.042200
    212 H121       -15.0440    35.1430    -6.7590 h1         6 MOL       0.042200
    213 H122       -15.7730    36.8690    -4.4800 h1         6 MOL       0.033700
    214 H123       -15.5640    37.3580    -6.2080 h1         6 MOL       0.033700
    215 H124       -13.5760    38.6530    -5.5890 h1         6 MOL       0.059200
    216 H125       -13.7860    38.1550    -3.8760 h1         6 MOL       0.059200
    217 H126        18.6300   -12.1920   -16.1350 ho         6 MOL       0.398000
    218 H127       -28.0670   -13.4080   -14.9790 ho         6 MOL       0.398000
    219 H128       -15.6750    39.6210    -5.4760 ho         6 MOL       0.398000
@<TRIPOS>BOND
     1     1    10 1   
     2     1    13 1   
     3     1    94 1   
     4     2    11 1   
     5     2    12 1   
     6     2    95 1   
     7     3    14 1   
     8     3    15 1   
     9     3    96 1   
    10     4     5 ar  
    11     4     9 ar  
    12     4    15 1   
    13     5     6 ar  
    14     5    91 1   
    15     6     7 ar  
    16     6    11 1   
    17     7     8 ar  
    18     7    92 1   
    19     8     9 ar  
    20     8    10 1   
    21     9    93 1   
    22    10    73 2   
    23    11    74 2   
    24    12    35 1   
    25    12   137 1   
    26    12   138 1   
    27    13    54 1   
    28    13   177 1   
    29    13   178 1   
    30    14    16 1   
    31    14    97 1   
    32    14    98 1   
    33    15    75 2   
    34    16    17 1   
    35    16    99 1   
    36    16   100 1   
    37    17    18 1   
    38    17   101 1   
    39    17   102 1   
    40    18    19 1   
    41    18   103 1   
    42    18   104 1   
    43    19    20 1   
    44    19   105 1   
    45    19   106 1   
    46    20    21 1   
    47    20   107 1   
    48    20   108 1   
    49    21    22 1   
    50    21   109 1   
    51    21   110 1   
    52    22    23 1   
    53    22   111 1   
    54    22   112 1   
    55    23    24 1   
    56    23   113 1   
    57    23   114 1   
    58    24    25 1   
    59    24   115 1   
    60    24   116 1   
    61    25    26 1   
    62    25   117 1   
    63    25   118 1   
    64    26    76 1   
    65    26   119 1   
    66    26   120 1   
    67    27    28 1   
    68    27    76 1   
    69    27   121 1   
    70    27   122 1   
    71    28    77 1   
    72    28   123 1   
    73    28   124 1   
    74    29    30 1   
    75    29    77 1   
    76    29   125 1   
    77    29   126 1   
    78    30    78 1   
    79    30   127 1   
    80    30   128 1   
    81    31    32 1   
    82    31    78 1   
    83    31   129 1   
    84    31   130 1   
    85    32    79 1   
    86    32   131 1   
    87    32   132 1   
    88    33    34 1   
    89    33    79 1   
    90    33   133 1   
    91    33   134 1   
    92    34    80 1   
    93    34   135 1   
    94    34   136 1   
    95    35    36 1   
    96    35   139 1   
    97    35   140 1   
    98    36    37 1   
    99    36   141 1   
   100    36   142 1   
   101    37    38 1   
   102    37   143 1   
   103    37   144 1   
   104    38    39 1   
   105    38   145 1   
   106    38   146 1   
   107    39    40 1   
   108    39   147 1   
   109    39   148 1   
   110    40    41 1   
   111    40   149 1   
   112    40   150 1   
   113    41    42 1   
   114    41   151 1   
   115    41   152 1   
   116    42    43 1   
   117    42   153 1   
   118    42   154 1   
   119    43    44 1   
   120    43   155 1   
   121    43   156 1   
   122    44    45 1   
   123    44   157 1   
   124    44   158 1   
   125    45    81 1   
   126    45   159 1   
   127    45   160 1   
   128    46    47 1   
   129    46    81 1   
   130    46   161 1   
   131    46   162 1   
   132    47    82 1   
   133    47   163 1   
   134    47   164 1   
   135    48    49 1   
   136    48    82 1   
   137    48   165 1   
   138    48   166 1   
   139    49    83 1   
   140    49   167 1   
   141    49   168 1   
   142    50    51 1   
   143    50    83 1   
   144    50   169 1   
   145    50   170 1   
   146    51    84 1   
   147    51   171 1   
   148    51   172 1   
   149    52    53 1   
   150    52    84 1   
   151    52   173 1   
   152    52   174 1   
   153    53    85 1   
   154    53   175 1   
   155    53   176 1   
   156    54    55 1   
   157    54   179 1   
   158    54   180 1   
   159    55    56 1   
   160    55   181 1   
   161    55   182 1   
   162    56    57 1   
   163    56   183 1   
   164    56   184 1   
   165    57    58 1   
   166    57   185 1   
   167    57   186 1   
   168    58    59 1   
   169    58   187 1   
   170    58   188 1   
   171    59    60 1   
   172    59   189 1   
   173    59   190 1   
   174    60    61 1   
   175    60   191 1   
   176    60   192 1   
   177    61    62 1   
   178    61   193 1   
   179    61   194 1   
   180    62    63 1   
   181    62   195 1   
   182    62   196 1   
   183    63    64 1   
   184    63   197 1   
   185    63   198 1   
   186    64    86 1   
   187    64   199 1   
   188    64   200 1   
   189    65    66 1   
   190    65    86 1   
   191    65   201 1   
   192    65   202 1   
   193    66    87 1   
   194    66   203 1   
   195    66   204 1   
   196    67    68 1   
   197    67    87 1   
   198    67   205 1   
   199    67   206 1   
   200    68    88 1   
   201    68   207 1   
   202    68   208 1   
   203    69    70 1   
   204    69    88 1   
   205    69   209 1   
   206    69   210 1   
   207    70    89 1   
   208    70   211 1   
   209    70   212 1   
   210    71    72 1   
   211    71    89 1   
   212    71   213 1   
   213    71   214 1   
   214    72    90 1   
   215    72   215 1   
   216    72   216 1   
   217    80   217 1   
   218    85   218 1   
   219    90   219 1   
@<TRIPOS>SUBSTRUCTURE
     1 MOL         1 TEMP              0 ****  ****    0 ROOT
