@<TRIPOS>MOLECULE
MOL
  378   381     1     0     0
SMALL
bcc


@<TRIPOS>ATOM
      1 N           -6.0940    12.2230   -10.1730 n          6 MOL      -0.559233
      2 N1          -6.7810     5.8600   -11.4230 n          6 MOL      -0.559233
      3 N2          -1.0060     8.2890   -10.8120 n          6 MOL      -0.559233
      4 C           -3.2890     8.9890   -10.4070 ca         6 MOL      -0.154600
      5 C1          -3.8120     7.6890   -10.4650 ca         6 MOL      -0.038667
      6 C2          -5.1870     7.4630   -10.5790 ca         6 MOL      -0.154600
      7 C3          -6.0530     8.5650   -10.6100 ca         6 MOL      -0.038667
      8 C4          -5.5680     9.8780   -10.5380 ca         6 MOL      -0.154600
      9 C5          -4.1790    10.0730   -10.4360 ca         6 MOL      -0.038667
     10 C6          -6.5390    11.0360   -10.6070 c          6 MOL       0.669700
     11 C7          -5.7120     6.0520   -10.6430 c          6 MOL       0.669700
     12 C8          -7.3820     4.5780   -11.5300 c3         6 MOL       0.084667
     13 C9          -6.9830    13.3430   -10.2170 c3         6 MOL       0.084667
     14 C10          0.4050     8.4150   -10.7330 c3         6 MOL       0.084667
     15 C11         -1.8030     9.2300   -10.2890 c          6 MOL       0.669700
     16 C12          1.0370     7.0790   -11.0970 c3         6 MOL      -0.104733
     17 C13          2.5540     7.1860   -11.0200 c3         6 MOL      -0.077400
     18 C14          3.1230     5.8210   -11.3850 c3         6 MOL      -0.079067
     19 C15          4.6460     5.8420   -11.3250 c3         6 MOL      -0.079400
     20 C16          5.1270     4.4460   -11.6920 c3         6 MOL      -0.079400
     21 C17          6.6470     4.3800   -11.6510 c3         6 MOL      -0.079400
     22 C18          7.0430     2.9570   -12.0220 c3         6 MOL      -0.079400
     23 C19          8.5590     2.8030   -12.0010 c3         6 MOL      -0.078400
     24 C20          8.8720     1.3620   -12.3730 c3         6 MOL      -0.078400
     25 C21         10.3760     1.1360   -12.3700 c3         6 MOL      -0.084400
     26 C22         10.6150    -0.3210   -12.7450 c3         6 MOL       0.133067
     27 C23         12.1680    -1.9210   -13.0920 c3         6 MOL       0.117400
     28 C24         13.6000    -2.2570   -13.1180 c3         6 MOL       0.130067
     29 C25         14.6780    -4.1760   -13.5640 c3         6 MOL       0.128067
     30 C26         14.1910    -5.4720   -13.9090 c3         6 MOL       0.128400
     31 C27         14.8390    -7.4990   -14.3870 c3         6 MOL       0.118067
     32 C28         16.0780    -8.2840   -14.5380 c3         6 MOL       0.128400
     33 C29         16.8780   -10.4490   -15.0480 c3         6 MOL       0.100733
     34 C30         16.4570   -11.9220   -15.4200 c3         6 MOL       0.085333
     35 C31         -8.9000     4.7450   -11.5960 c3         6 MOL      -0.104733
     36 C32         -9.5420     3.3670   -11.7220 c3         6 MOL      -0.077400
     37 C33        -11.0610     3.5250   -11.7850 c3         6 MOL      -0.079067
     38 C34        -11.6940     2.1420   -11.9170 c3         6 MOL      -0.079400
     39 C35        -13.2130     2.2820   -11.9780 c3         6 MOL      -0.079400
     40 C36        -13.8150     0.8880   -12.1150 c3         6 MOL      -0.079400
     41 C37        -15.3370     0.9870   -12.1770 c3         6 MOL      -0.079400
     42 C38        -15.8960    -0.4300   -12.3210 c3         6 MOL      -0.078400
     43 C39        -17.4240    -0.3970   -12.3860 c3         6 MOL      -0.078400
     44 C40        -17.9140    -1.8380   -12.5360 c3         6 MOL      -0.084400
     45 C41        -19.4450    -1.8790   -12.6050 c3         6 MOL       0.133067
     46 C42        -21.2200    -3.3540   -12.8060 c3         6 MOL       0.117400
     47 C43        -21.5230    -4.7850   -12.9650 c3         6 MOL       0.130067
     48 C44        -23.2450    -6.1260   -13.1560 c3         6 MOL       0.128067
     49 C45        -24.6680    -6.1120   -13.1690 c3         6 MOL       0.128400
     50 C46        -26.1990    -7.7250   -13.3380 c3         6 MOL       0.118067
     51 C47        -26.0990    -9.1670   -13.5050 c3         6 MOL       0.128400
     52 C48        -27.2750   -11.0710   -13.7100 c3         6 MOL       0.100733
     53 C49        -28.6770   -11.6350   -13.7180 c3         6 MOL       0.085333
     54 C50         -6.3750    14.6290    -9.6570 c3         6 MOL      -0.104733
     55 C51         -7.4690    15.6990    -9.7600 c3         6 MOL      -0.077400
     56 C52         -6.9880    17.0470    -9.2220 c3         6 MOL      -0.079067
     57 C53         -8.1600    18.0300    -9.3470 c3         6 MOL      -0.079400
     58 C54         -7.7750    19.4160    -8.8210 c3         6 MOL      -0.079400
     59 C55         -9.0030    20.3270    -8.9580 c3         6 MOL      -0.079400
     60 C56         -8.6840    21.7310    -8.4360 c3         6 MOL      -0.079400
     61 C57         -9.9470    22.5970    -8.5720 c3         6 MOL      -0.078400
     62 C58         -9.6750    24.0130    -8.0500 c3         6 MOL      -0.078400
     63 C59        -10.9620    24.8440    -8.1830 c3         6 MOL      -0.084400
     64 C60        -10.7140    26.2660    -7.6580 c3         6 MOL       0.133067
     65 C61        -11.7040    28.3080    -7.2970 c3         6 MOL       0.117400
     66 C62        -12.9630    29.0730    -7.4040 c3         6 MOL       0.130067
     67 C63        -13.5950    31.1550    -6.8920 c3         6 MOL       0.128067
     68 C64        -12.9380    32.2960    -6.3430 c3         6 MOL       0.128400
     69 C65        -13.3380    34.3820    -5.7750 c3         6 MOL       0.118067
     70 C66        -14.4500    35.3410    -5.7550 c3         6 MOL       0.128400
     71 C67        -14.9660    37.5100    -5.1900 c3         6 MOL       0.100733
     72 C68        -14.3550    38.7920    -4.6230 c3         6 MOL       0.085333
     73 O           -7.6840    10.8820   -11.0390 o          6 MOL      -0.607433
     74 O1          -5.1710     5.1430   -10.0120 o          6 MOL      -0.607433
     75 O2          -1.3600    10.2430    -9.7450 o          6 MOL      -0.607433
     76 O3          12.0130    -0.6040   -12.7590 os         6 MOL      -0.426600
     77 O4          13.5200    -3.5700   -13.4570 os         6 MOL      -0.427267
     78 O5          15.2560    -6.2300   -14.0570 os         6 MOL      -0.431933
     79 O6          15.7090    -9.6000   -14.8750 os         6 MOL      -0.428267
     80 O8         -19.8420    -3.2440   -12.7500 os         6 MOL      -0.426600
     81 O9         -22.8950    -4.8620   -13.0100 os         6 MOL      -0.427267
     82 O10        -24.8930    -7.4050   -13.3150 os         6 MOL      -0.431933
     83 O11        -27.3550    -9.6710   -13.5370 os         6 MOL      -0.428267
     84 O13        -11.9220    27.0330    -7.7720 os         6 MOL      -0.426600
     85 O14        -12.5970    30.2920    -6.9040 os         6 MOL      -0.427267
     86 O15        -13.8770    33.2310    -6.2880 os         6 MOL      -0.431933
     87 O16        -13.9480    36.5200    -5.2440 os         6 MOL      -0.428267
     88 H253        -3.1480     6.8370   -10.4080 ha         6 MOL       0.160667
     89 H254        -7.1210     8.4010   -10.6840 ha         6 MOL       0.160667
     90 H255        -3.7720    11.0760   -10.4060 ha         6 MOL       0.160667
     91 H250        -5.1860    12.2470    -9.7350 hn         6 MOL       0.312167
     92 H251        -7.0300     6.6150   -12.0540 hn         6 MOL       0.312167
     93 H252        -1.4390     7.5540   -11.3470 hn         6 MOL       0.312167
     94 H6           0.6880     8.7210    -9.7160 h1         6 MOL       0.064033
     95 H7           0.7380     9.1920   -11.4360 h1         6 MOL       0.064033
     96 H8           0.7440     6.7990   -12.1190 hc         6 MOL       0.046200
     97 H9           0.6920     6.3090   -10.3930 hc         6 MOL       0.046200
     98 H10          2.8570     7.4580    -9.9990 hc         6 MOL       0.043200
     99 H11          2.9130     7.9470   -11.7270 hc         6 MOL       0.043200
    100 H12          2.8030     5.5540   -12.4020 hc         6 MOL       0.041367
    101 H13          2.7450     5.0720   -10.6750 hc         6 MOL       0.041367
    102 H14          4.9800     6.0960   -10.3080 hc         6 MOL       0.040533
    103 H15          5.0430     6.5770   -12.0400 hc         6 MOL       0.040533
    104 H16          4.7800     4.1960   -12.7050 hc         6 MOL       0.040200
    105 H17          4.7150     3.7210   -10.9760 hc         6 MOL       0.040200
    106 H18          7.0060     4.6170   -10.6400 hc         6 MOL       0.040200
    107 H19          7.0750     5.0900   -12.3730 hc         6 MOL       0.040200
    108 H20          6.6680     2.7270   -13.0290 hc         6 MOL       0.039867
    109 H21          6.5980     2.2590   -11.2980 hc         6 MOL       0.039867
    110 H22          8.9450     3.0200   -10.9950 hc         6 MOL       0.041700
    111 H23          9.0170     3.4860   -12.7290 hc         6 MOL       0.041700
    112 H24          8.4740     1.1510   -13.3760 hc         6 MOL       0.040367
    113 H25          8.4010     0.6880   -11.6440 hc         6 MOL       0.040367
    114 H26         10.7820     1.3370   -11.3670 hc         6 MOL       0.055033
    115 H27         10.8560     1.7990   -13.1040 hc         6 MOL       0.055033
    116 H28         10.1920    -0.5110   -13.7430 h1         6 MOL       0.027533
    117 H29         10.1170    -0.9680   -12.0070 h1         6 MOL       0.027533
    118 H30         11.7380    -2.1090   -14.0860 h1         6 MOL       0.037533
    119 H31         11.6650    -2.5560   -12.3490 h1         6 MOL       0.037533
    120 H32         14.0620    -2.1200   -12.1270 h1         6 MOL       0.049200
    121 H33         14.1360    -1.6710   -13.8820 h1         6 MOL       0.049200
    122 H34         15.2260    -4.1920   -12.6100 h1         6 MOL       0.041700
    123 H35         15.2960    -3.7490   -14.3670 h1         6 MOL       0.041700
    124 H36         13.6180    -5.4160   -14.8450 h1         6 MOL       0.042033
    125 H37         13.5500    -5.8540   -13.1010 h1         6 MOL       0.042033
    126 H38         14.2760    -7.4870   -15.3340 h1         6 MOL       0.043700
    127 H39         14.2140    -7.9210   -13.5830 h1         6 MOL       0.043700
    128 H40         16.6320    -8.2710   -13.5880 h1         6 MOL       0.049533
    129 H41         16.6930    -7.8390   -15.3340 h1         6 MOL       0.049533
    130 H42         17.4530   -10.4600   -14.1080 h1         6 MOL       0.038033
    131 H43         17.5030   -10.0340   -15.8530 h1         6 MOL       0.038033
    132 H46         -7.0940     3.9600   -10.6660 h1         6 MOL       0.064033
    133 H47         -7.0420     4.0930   -12.4560 h1         6 MOL       0.064033
    134 H48         -9.1680     5.3570   -12.4690 hc         6 MOL       0.046200
    135 H49         -9.2570     5.2360   -10.6780 hc         6 MOL       0.046200
    136 H50         -9.2720     2.7540   -10.8510 hc         6 MOL       0.043200
    137 H51         -9.1830     2.8790   -12.6390 hc         6 MOL       0.043200
    138 H52        -11.3330     4.1400   -12.6550 hc         6 MOL       0.041367
    139 H53        -11.4200     4.0090   -10.8650 hc         6 MOL       0.041367
    140 H54        -11.4180     1.5270   -11.0490 hc         6 MOL       0.040533
    141 H55        -11.3340     1.6610   -12.8380 hc         6 MOL       0.040533
    142 H56        -13.4950     2.8950   -12.8460 hc         6 MOL       0.040200
    143 H57        -13.5790     2.7560   -11.0560 hc         6 MOL       0.040200
    144 H58        -13.5240     0.2760   -11.2500 hc         6 MOL       0.040200
    145 H59        -13.4420     0.4190   -13.0370 hc         6 MOL       0.040200
    146 H60        -15.6350     1.5960   -13.0430 hc         6 MOL       0.039867
    147 H61        -15.7160     1.4480   -11.2530 hc         6 MOL       0.039867
    148 H62        -15.5830    -1.0340   -11.4580 hc         6 MOL       0.041700
    149 H63        -15.5040    -0.8810   -13.2440 hc         6 MOL       0.041700
    150 H64        -17.7480     0.2000   -13.2500 hc         6 MOL       0.040367
    151 H65        -17.8260     0.0420   -11.4620 hc         6 MOL       0.040367
    152 H66        -17.5730    -2.4280   -11.6730 hc         6 MOL       0.055033
    153 H67        -17.4970    -2.2660   -13.4590 hc         6 MOL       0.055033
    154 H68        -19.7960    -1.2940   -13.4690 h1         6 MOL       0.027533
    155 H69        -19.8690    -1.4620   -11.6790 h1         6 MOL       0.027533
    156 H70        -21.6170    -2.7960   -13.6640 h1         6 MOL       0.037533
    157 H71        -21.6730    -2.9820   -11.8760 h1         6 MOL       0.037533
    158 H72        -21.1320    -5.3540   -12.1070 h1         6 MOL       0.049200
    159 H73        -21.0820    -5.1650   -13.9000 h1         6 MOL       0.049200
    160 H74        -22.8870    -6.7330   -12.3130 h1         6 MOL       0.041700
    161 H75        -22.8640    -6.5330   -14.1030 h1         6 MOL       0.041700
    162 H76        -25.0560    -5.5290   -14.0170 h1         6 MOL       0.042033
    163 H77        -25.0670    -5.7320   -12.2170 h1         6 MOL       0.042033
    164 H78        -26.7190    -7.2570   -14.1890 h1         6 MOL       0.043700
    165 H79        -26.6950    -7.4660   -12.3890 h1         6 MOL       0.043700
    166 H80        -25.5410    -9.5940   -12.6600 h1         6 MOL       0.049533
    167 H81        -25.5740    -9.3880   -14.4450 h1         6 MOL       0.049533
    168 H82        -26.7040   -11.5160   -12.8800 h1         6 MOL       0.038033
    169 H83        -26.7770   -11.2980   -14.6660 h1         6 MOL       0.038033
    170 H86         -7.8830    13.0820    -9.6410 h1         6 MOL       0.064033
    171 H87         -7.2910    13.5010   -11.2600 h1         6 MOL       0.064033
    172 H88         -5.4940    14.9240   -10.2460 hc         6 MOL       0.046200
    173 H89         -6.0890    14.4870    -8.6040 hc         6 MOL       0.046200
    174 H90         -8.3400    15.3720    -9.1750 hc         6 MOL       0.043200
    175 H91         -7.7620    15.8160   -10.8130 hc         6 MOL       0.043200
    176 H92         -6.1290    17.4010    -9.8080 hc         6 MOL       0.041367
    177 H93         -6.7000    16.9440    -8.1660 hc         6 MOL       0.041367
    178 H94         -9.0090    17.6490    -8.7620 hc         6 MOL       0.040533
    179 H95         -8.4540    18.1140   -10.4040 hc         6 MOL       0.040533
    180 H96         -6.9370    19.8210    -9.4060 hc         6 MOL       0.040200
    181 H97         -7.4860    19.3430    -7.7630 hc         6 MOL       0.040200
    182 H98         -9.8310    19.9030    -8.3720 hc         6 MOL       0.040200
    183 H99         -9.2970    20.3880   -10.0150 hc         6 MOL       0.040200
    184 H100        -7.8630    22.1670    -9.0230 hc         6 MOL       0.039867
    185 H101        -8.3900    21.6710    -7.3780 hc         6 MOL       0.039867
    186 H102       -10.7600    22.1460    -7.9840 hc         6 MOL       0.041700
    187 H103       -10.2460    22.6500    -9.6280 hc         6 MOL       0.041700
    188 H104        -8.8700    24.4770    -8.6370 hc         6 MOL       0.040367
    189 H105        -9.3780    23.9640    -6.9930 hc         6 MOL       0.040367
    190 H106       -11.7600    24.3700    -7.5930 hc         6 MOL       0.055033
    191 H107       -11.2620    24.8870    -9.2400 hc         6 MOL       0.055033
    192 H108        -9.9160    26.7420    -8.2480 h1         6 MOL       0.027533
    193 H109       -10.4100    26.2170    -6.6020 h1         6 MOL       0.027533
    194 H110       -10.9260    28.8060    -7.8930 h1         6 MOL       0.037533
    195 H111       -11.3950    28.2720    -6.2430 h1         6 MOL       0.037533
    196 H112       -13.7530    28.6120    -6.7900 h1         6 MOL       0.049200
    197 H113       -13.2880    29.1530    -8.4530 h1         6 MOL       0.049200
    198 H114       -14.4140    30.8200    -6.2390 h1         6 MOL       0.041700
    199 H115       -13.9660    31.3640    -7.9060 h1         6 MOL       0.041700
    200 H116       -12.1120    32.6040    -7.0000 h1         6 MOL       0.042033
    201 H117       -12.5560    32.0630    -5.3390 h1         6 MOL       0.042033
    202 H118       -12.5260    34.7510    -6.4210 h1         6 MOL       0.043700
    203 H119       -12.9610    34.2120    -4.7540 h1         6 MOL       0.043700
    204 H120       -15.2570    34.9570    -5.1150 h1         6 MOL       0.049533
    205 H121       -14.8240    35.4930    -6.7770 h1         6 MOL       0.049533
    206 H122       -15.7830    37.1650    -4.5370 h1         6 MOL       0.038033
    207 H123       -15.3550    37.6980    -6.2030 h1         6 MOL       0.038033
    208 N4          17.6570   -12.7680   -15.5980 n          6 MOL      -0.567233
    209 H124        15.8740   -11.9190   -16.3570 h1         6 MOL       0.074700
    210 H125        15.8240   -12.3500   -14.6250 h1         6 MOL       0.074700
    211 C69         17.5760   -14.0280   -15.8490 c          6 MOL       0.656433
    212 O17         16.8980   -15.0490   -16.0480 o          6 MOL      -0.608767
    213 H126        18.5530   -12.3440   -15.5200 hn         6 MOL       0.309833
    214 C70         19.0320   -14.5120   -15.9590 c3         6 MOL      -0.158733
    215 C71         19.1670   -16.0570   -16.2110 c3         6 MOL       0.140733
    216 H127        19.5610   -14.2290   -15.0360 hc         6 MOL       0.076700
    217 H128        19.5170   -13.9560   -16.7770 hc         6 MOL       0.076700
    218 O18         20.5670   -16.3730   -16.2980 os         6 MOL      -0.435933
    219 H129        18.7120   -16.6180   -15.3780 h1         6 MOL       0.047033
    220 H130        18.6670   -16.3330   -17.1550 h1         6 MOL       0.047033
    221 C72         20.7620   -17.7410   -16.5190 c3         6 MOL       0.119400
    222 C73         22.2110   -17.9580   -16.5990 c3         6 MOL       0.128400
    223 H131        20.3490   -18.3310   -15.6880 h1         6 MOL       0.044200
    224 H132        20.2940   -18.0510   -17.4650 h1         6 MOL       0.044200
    225 O19         22.3460   -19.3040   -16.8130 os         6 MOL      -0.425600
    226 H133        22.6390   -17.3850   -17.4380 h1         6 MOL       0.048700
    227 H134        22.6960   -17.6640   -15.6540 h1         6 MOL       0.048700
    228 C74         23.6270   -19.5980   -16.9060 c3         6 MOL       0.127067
    229 C75         23.6620   -21.0060   -17.1170 c3         6 MOL       0.124733
    230 H135        24.1570   -19.3460   -15.9760 h1         6 MOL       0.041700
    231 H136        24.0900   -19.0790   -17.7570 h1         6 MOL       0.041700
    232 O20         24.9730   -21.1860   -17.1940 os         6 MOL      -0.427267
    233 H137        23.1530   -21.2790   -18.0540 h1         6 MOL       0.045200
    234 H138        23.2220   -21.5430   -16.2630 h1         6 MOL       0.045200
    235 C76         25.3290   -22.4590   -17.3860 c3         6 MOL       0.128400
    236 C77         26.7560   -22.3360   -17.4280 c3         6 MOL       0.104067
    237 H139        25.0190   -23.0990   -16.5470 h1         6 MOL       0.052700
    238 H44         24.9450   -22.8560   -18.3380 h1         6 MOL       0.052700
    239 O21         27.1100   -23.5480   -17.6090 os         6 MOL      -0.410267
    240 H84         27.0650   -21.7020   -18.2630 h1         6 MOL       0.051867
    241 H181        27.1380   -21.9490   -16.4810 h1         6 MOL       0.051867
    242 C78         28.4410   -23.7420   -17.6830 c3         6 MOL       0.113067
    243 C79         28.3620   -25.2020   -17.8560 c3         6 MOL       0.154800
    244 H186        28.8930   -23.2240   -18.5580 h1         6 MOL       0.057533
    245 H188        28.9570   -23.4520   -16.7450 h1         6 MOL       0.057533
    246 N5          29.5760   -25.8060   -17.9660 nh         6 MOL      -0.736933
    247 H190        27.8280   -25.6320   -16.9950 h1         6 MOL       0.080200
    248 H192        27.7690   -25.4200   -18.7580 h1         6 MOL       0.080200
    249 H194        30.3700   -25.2170   -17.9830 hn         6 MOL       0.436800
    250 N6         -15.3420    39.8200    -4.5450 n          6 MOL      -0.567233
    251 H196       -13.5270    39.1400    -5.2590 h1         6 MOL       0.074700
    252 H198       -13.9550    38.6050    -3.6150 h1         6 MOL       0.074700
    253 C80        -14.9820    41.0520    -4.1850 c          6 MOL       0.656433
    254 H45        -16.2910    39.6230    -4.7580 hn         6 MOL       0.309833
    255 O22        -13.7970    41.2890    -3.9230 o          6 MOL      -0.608767
    256 C81        -16.0090    42.1610    -4.0950 c3         6 MOL      -0.158733
    257 C82        -15.3280    43.5070    -3.7540 c3         6 MOL       0.140733
    258 H85        -16.5540    42.2210    -5.0500 hc         6 MOL       0.076700
    259 H185       -16.7490    41.8960    -3.3230 hc         6 MOL       0.076700
    260 O23        -16.3180    44.5570    -3.6650 os         6 MOL      -0.435933
    261 H187       -14.8060    43.4120    -2.7910 h1         6 MOL       0.047033
    262 H189       -14.5990    43.7540    -4.5390 h1         6 MOL       0.047033
    263 C83        -15.6860    45.7750    -3.3460 c3         6 MOL       0.119400
    264 C84        -16.7310    46.8370    -3.2600 c3         6 MOL       0.128400
    265 H191       -15.1710    45.6880    -2.3780 h1         6 MOL       0.044200
    266 H193       -14.9600    46.0380    -4.1280 h1         6 MOL       0.044200
    267 O24        -16.0670    48.0240    -2.9400 os         6 MOL      -0.425600
    268 H195       -17.2470    46.9380    -4.2280 h1         6 MOL       0.048700
    269 H197       -17.4600    46.5850    -2.4730 h1         6 MOL       0.048700
    270 C85        -16.9700    49.0060    -2.8510 c3         6 MOL       0.127067
    271 C86        -16.2470    50.2070    -2.5120 c3         6 MOL       0.124733
    272 H199       -17.4860    49.1440    -3.8120 h1         6 MOL       0.041700
    273 H140       -17.7040    48.7850    -2.0630 h1         6 MOL       0.041700
    274 O25        -17.2590    51.0770    -2.4590 os         6 MOL      -0.427267
    275 H141       -15.7450    50.1080    -1.5360 h1         6 MOL       0.045200
    276 H142       -15.5220    50.4740    -3.2970 h1         6 MOL       0.045200
    277 C87        -16.8750    52.3170    -2.1450 c3         6 MOL       0.128400
    278 C88        -18.1310    53.0100    -2.1620 c3         6 MOL       0.104067
    279 H143       -16.4220    52.3600    -1.1440 h1         6 MOL       0.052700
    280 H144       -16.1900    52.7370    -2.8960 h1         6 MOL       0.052700
    281 O26        -17.7680    54.1970    -1.8600 os         6 MOL      -0.410267
    282 H145       -18.5810    52.9730    -3.1570 h1         6 MOL       0.051867
    283 H146       -18.8090    52.6000    -1.4100 h1         6 MOL       0.051867
    284 C89        -18.7710    55.0980    -1.7960 c3         6 MOL       0.113067
    285 C90        -17.9150    56.2380    -1.4230 c3         6 MOL       0.154800
    286 H147       -19.2730    55.2350    -2.7780 h1         6 MOL       0.057533
    287 H148       -19.5100    54.8420    -1.0080 h1         6 MOL       0.057533
    288 N7         -18.5980    57.4050    -1.2490 nh         6 MOL      -0.736933
    289 H149       -17.3870    55.9950    -0.4890 h1         6 MOL       0.080200
    290 H150       -17.1560    56.3820    -2.2060 h1         6 MOL       0.080200
    291 H151       -19.5710    57.3850    -1.4270 hn         6 MOL       0.436800
    292 N8         -28.5850   -13.0790   -13.9080 n          6 MOL      -0.567233
    293 H152       -29.2430   -11.1900   -14.5500 h1         6 MOL       0.074700
    294 H153       -29.1810   -11.4090   -12.7660 h1         6 MOL       0.074700
    295 C91        -29.6760   -13.7820   -14.2170 c          6 MOL       0.656433
    296 H154       -27.7270   -13.5810   -13.6430 hn         6 MOL       0.309833
    297 O27        -30.7420   -13.1960   -14.4380 o          6 MOL      -0.608767
    298 C92        -29.6090   -15.2930   -14.3110 c3         6 MOL      -0.158733
    299 C93        -30.9910   -15.8900   -14.6140 c3         6 MOL       0.140733
    300 H155       -28.8950   -15.5600   -15.1040 hc         6 MOL       0.076700
    301 H156       -29.2010   -15.6940   -13.3700 hc         6 MOL       0.076700
    302 O28        -30.8720   -17.3240   -14.7210 os         6 MOL      -0.435933
    303 H157       -31.6890   -15.6290   -13.8050 h1         6 MOL       0.047033
    304 H158       -31.3610   -15.4770   -15.5640 h1         6 MOL       0.047033
    305 C94        -32.0970   -17.8760   -15.0070 c3         6 MOL       0.119400
    306 C95        -31.8980   -19.3240   -15.1620 c3         6 MOL       0.128400
    307 H159       -32.8120   -17.6800   -14.1960 h1         6 MOL       0.044200
    308 H160       -32.4840   -17.4650   -15.9500 h1         6 MOL       0.044200
    309 O29        -33.1500   -19.7370   -15.4950 os         6 MOL      -0.425600
    310 H161       -31.2030   -19.5020   -15.9970 h1         6 MOL       0.048700
    311 C96        -33.1340   -21.0150   -15.8630 c3         6 MOL       0.127067
    312 C97        -34.4820   -21.2640   -16.2380 c3         6 MOL       0.124733
    313 H162       -32.8250   -21.6660   -15.0370 h1         6 MOL       0.041700
    314 H163       -32.4790   -21.1690   -16.7270 h1         6 MOL       0.041700
    315 O30        -34.3640   -22.5080   -16.6380 os         6 MOL      -0.427267
    316 H164       -35.1420   -21.1540   -15.3640 h1         6 MOL       0.045200
    317 H165       -34.8050   -20.6040   -17.0560 h1         6 MOL       0.045200
    318 C98        -35.5370   -23.1190   -16.9100 c3         6 MOL       0.128400
    319 C99        -35.0110   -24.4210   -17.2070 c3         6 MOL       0.104067
    320 H166       -36.1600   -23.1580   -16.0020 h1         6 MOL       0.052700
    321 H167       -36.0950   -22.6750   -17.7540 h1         6 MOL       0.052700
    322 O31        -36.0520   -25.2660   -17.2860 os         6 MOL      -0.410267
    323 H168       -34.4120   -24.7080   -16.3290 h1         6 MOL       0.051867
    324 C100       -35.4690   -26.5060   -17.2080 c3         6 MOL       0.113067
    325 C101       -36.4870   -27.4820   -16.6890 c3         6 MOL       0.154800
    326 H169       -34.6900   -26.4480   -16.4560 h1         6 MOL       0.057533
    327 H170       -35.0250   -26.8120   -18.1710 h1         6 MOL       0.057533
    328 N9         -35.8040   -28.7490   -16.4000 nh         6 MOL      -0.736933
    329 H171       -36.8840   -27.0720   -15.7570 h1         6 MOL       0.080200
    330 H172       -37.3010   -27.6110   -17.4220 h1         6 MOL       0.080200
    331 H173       -36.0210   -29.5320   -17.0100 hn         6 MOL       0.436800
    332 C102        29.7730   -27.2050   -18.0390 ca         6 MOL       0.297600
    333 C103        28.7310   -28.3780   -18.0460 ca         6 MOL      -0.269867
    334 C104        29.1770   -29.5990   -18.1190 ca         6 MOL       0.035000
    335 H174        28.5040   -30.4250   -18.1260 ha         6 MOL       0.197667
    336 C105        30.5110   -29.8200   -18.1860 ca         6 MOL      -0.250533
    337 C106        31.4280   -28.8680   -18.1850 ca         6 MOL       0.006333
    338 H175        32.4590   -29.1240   -18.2410 ha         6 MOL       0.178333
    339 C113        31.0460   -27.5270   -18.1100 ca         6 MOL      -0.236333
    340 H176        31.7720   -26.7780   -18.1080 ha         6 MOL       0.154333
    341 N10         30.9000   -30.9760   -18.2520 no         6 MOL       0.327200
    342 O32         32.1590   -31.1600   -18.3120 o          6 MOL      -0.206667
    343 O33         30.1780   -31.8990   -18.2600 o          6 MOL      -0.206667
    344 N11         27.3750   -28.3250   -17.9860 no         6 MOL       0.318533
    345 O34         26.6690   -29.4230   -18.0130 o          6 MOL      -0.204167
    346 O35         26.8110   -27.3150   -17.9100 o          6 MOL      -0.204167
    347 C107       -18.0140    58.6240    -0.8280 ca         6 MOL       0.297600
    348 C108       -16.5230    58.9670    -0.4800 ca         6 MOL      -0.269867
    349 C109       -16.2410    60.1830    -0.1100 ca         6 MOL       0.035000
    350 H177       -15.2410    60.4590     0.1360 ha         6 MOL       0.197667
    351 C110       -17.2290    61.1060    -0.0360 ca         6 MOL      -0.250533
    352 C111       -18.4970    60.8670    -0.3190 ca         6 MOL       0.006333
    353 H178       -19.2150    61.6480    -0.2360 ha         6 MOL       0.178333
    354 C112       -18.8970    59.5930    -0.7250 ca         6 MOL      -0.236333
    355 H179       -19.9000    59.4080    -0.9470 ha         6 MOL       0.154333
    356 N12        -16.9330    62.2380     0.3150 no         6 MOL       0.327200
    357 O36        -17.8790    63.0890     0.3780 o          6 MOL      -0.206667
    358 O37        -15.8410    62.5630     0.5900 o          6 MOL      -0.206667
    359 N13        -15.4280    58.1650    -0.5040 no         6 MOL       0.318533
    360 O38        -14.2550    58.6400    -0.1810 o          6 MOL      -0.204167
    361 O39        -15.5000    57.0490    -0.8060 o          6 MOL      -0.204167
    362 C123       -34.8320   -28.9600   -15.3170 ca         6 MOL       0.297600
    363 C124       -34.1890   -30.2390   -15.3340 ca         6 MOL      -0.236333
    364 H180       -34.4230   -30.9380   -16.0710 ha         6 MOL       0.154333
    365 C125       -33.3110   -30.5370   -14.4040 ca         6 MOL       0.006333
    366 H200       -32.8380   -31.4770   -14.3940 ha         6 MOL       0.178333
    367 C126       -32.9890   -29.5710   -13.4120 ca         6 MOL      -0.250533
    368 C127       -33.5300   -28.4000   -13.3790 ca         6 MOL       0.035000
    369 H182       -33.2680   -27.7070   -12.6120 ha         6 MOL       0.197667
    370 C128       -34.4850   -28.0900   -14.3240 ca         6 MOL      -0.269867
    371 N14        -32.1700   -29.8910   -12.5670 no         6 MOL       0.327200
    372 O40        -31.6020   -29.0540   -11.7100 o          6 MOL      -0.206667
    373 O41        -31.8510   -30.9910   -12.5850 o          6 MOL      -0.206667
    374 N15        -35.0610   -26.9320   -14.1290 no         6 MOL       0.318533
    375 O42        -36.3370   -26.9790   -13.7580 o          6 MOL      -0.204167
    376 O43        -34.4620   -25.9080   -14.2050 o          6 MOL      -0.204167
    377 H183       -31.5500   -19.7870   -14.2390 h1         6 MOL       0.048700
    378 H184       -34.4180   -24.4210   -18.1210 h1         6 MOL       0.051867
@<TRIPOS>BOND
     1     1    10 1   
     2     1    13 1   
     3     1    91 1   
     4     2    11 1   
     5     2    12 1   
     6     2    92 1   
     7     3    14 1   
     8     3    15 1   
     9     3    93 1   
    10     4     5 ar  
    11     4     9 ar  
    12     4    15 1   
    13     5     6 ar  
    14     5    88 1   
    15     6     7 ar  
    16     6    11 1   
    17     7     8 ar  
    18     7    89 1   
    19     8     9 ar  
    20     8    10 1   
    21     9    90 1   
    22    10    73 2   
    23    11    74 2   
    24    12    35 1   
    25    12   132 1   
    26    12   133 1   
    27    13    54 1   
    28    13   170 1   
    29    13   171 1   
    30    14    16 1   
    31    14    94 1   
    32    14    95 1   
    33    15    75 2   
    34    16    17 1   
    35    16    96 1   
    36    16    97 1   
    37    17    18 1   
    38    17    98 1   
    39    17    99 1   
    40    18    19 1   
    41    18   100 1   
    42    18   101 1   
    43    19    20 1   
    44    19   102 1   
    45    19   103 1   
    46    20    21 1   
    47    20   104 1   
    48    20   105 1   
    49    21    22 1   
    50    21   106 1   
    51    21   107 1   
    52    22    23 1   
    53    22   108 1   
    54    22   109 1   
    55    23    24 1   
    56    23   110 1   
    57    23   111 1   
    58    24    25 1   
    59    24   112 1   
    60    24   113 1   
    61    25    26 1   
    62    25   114 1   
    63    25   115 1   
    64    26    76 1   
    65    26   116 1   
    66    26   117 1   
    67    27    28 1   
    68    27    76 1   
    69    27   118 1   
    70    27   119 1   
    71    28    77 1   
    72    28   120 1   
    73    28   121 1   
    74    29    30 1   
    75    29    77 1   
    76    29   122 1   
    77    29   123 1   
    78    30    78 1   
    79    30   124 1   
    80    30   125 1   
    81    31    32 1   
    82    31    78 1   
    83    31   126 1   
    84    31   127 1   
    85    32    79 1   
    86    32   128 1   
    87    32   129 1   
    88    33    34 1   
    89    33    79 1   
    90    33   130 1   
    91    33   131 1   
    92    34   208 1   
    93    34   209 1   
    94    34   210 1   
    95    35    36 1   
    96    35   134 1   
    97    35   135 1   
    98    36    37 1   
    99    36   136 1   
   100    36   137 1   
   101    37    38 1   
   102    37   138 1   
   103    37   139 1   
   104    38    39 1   
   105    38   140 1   
   106    38   141 1   
   107    39    40 1   
   108    39   142 1   
   109    39   143 1   
   110    40    41 1   
   111    40   144 1   
   112    40   145 1   
   113    41    42 1   
   114    41   146 1   
   115    41   147 1   
   116    42    43 1   
   117    42   148 1   
   118    42   149 1   
   119    43    44 1   
   120    43   150 1   
   121    43   151 1   
   122    44    45 1   
   123    44   152 1   
   124    44   153 1   
   125    45    80 1   
   126    45   154 1   
   127    45   155 1   
   128    46    47 1   
   129    46    80 1   
   130    46   156 1   
   131    46   157 1   
   132    47    81 1   
   133    47   158 1   
   134    47   159 1   
   135    48    49 1   
   136    48    81 1   
   137    48   160 1   
   138    48   161 1   
   139    49    82 1   
   140    49   162 1   
   141    49   163 1   
   142    50    51 1   
   143    50    82 1   
   144    50   164 1   
   145    50   165 1   
   146    51    83 1   
   147    51   166 1   
   148    51   167 1   
   149    52    53 1   
   150    52    83 1   
   151    52   168 1   
   152    52   169 1   
   153    53   292 1   
   154    53   293 1   
   155    53   294 1   
   156    54    55 1   
   157    54   172 1   
   158    54   173 1   
   159    55    56 1   
   160    55   174 1   
   161    55   175 1   
   162    56    57 1   
   163    56   176 1   
   164    56   177 1   
   165    57    58 1   
   166    57   178 1   
   167    57   179 1   
   168    58    59 1   
   169    58   180 1   
   170    58   181 1   
   171    59    60 1   
   172    59   182 1   
   173    59   183 1   
   174    60    61 1   
   175    60   184 1   
   176    60   185 1   
   177    61    62 1   
   178    61   186 1   
   179    61   187 1   
   180    62    63 1   
   181    62   188 1   
   182    62   189 1   
   183    63    64 1   
   184    63   190 1   
   185    63   191 1   
   186    64    84 1   
   187    64   192 1   
   188    64   193 1   
   189    65    66 1   
   190    65    84 1   
   191    65   194 1   
   192    65   195 1   
   193    66    85 1   
   194    66   196 1   
   195    66   197 1   
   196    67    68 1   
   197    67    85 1   
   198    67   198 1   
   199    67   199 1   
   200    68    86 1   
   201    68   200 1   
   202    68   201 1   
   203    69    70 1   
   204    69    86 1   
   205    69   202 1   
   206    69   203 1   
   207    70    87 1   
   208    70   204 1   
   209    70   205 1   
   210    71    72 1   
   211    71    87 1   
   212    71   206 1   
   213    71   207 1   
   214    72   250 1   
   215    72   251 1   
   216    72   252 1   
   217   208   211 1   
   218   208   213 1   
   219   211   212 2   
   220   211   214 1   
   221   214   215 1   
   222   214   216 1   
   223   214   217 1   
   224   215   218 1   
   225   215   219 1   
   226   215   220 1   
   227   218   221 1   
   228   221   222 1   
   229   221   223 1   
   230   221   224 1   
   231   222   225 1   
   232   222   226 1   
   233   222   227 1   
   234   225   228 1   
   235   228   229 1   
   236   228   230 1   
   237   228   231 1   
   238   229   232 1   
   239   229   233 1   
   240   229   234 1   
   241   232   235 1   
   242   235   236 1   
   243   235   237 1   
   244   235   238 1   
   245   236   239 1   
   246   236   240 1   
   247   236   241 1   
   248   239   242 1   
   249   242   243 1   
   250   242   244 1   
   251   242   245 1   
   252   243   246 1   
   253   243   247 1   
   254   243   248 1   
   255   246   249 1   
   256   246   332 1   
   257   250   253 1   
   258   250   254 1   
   259   253   255 2   
   260   253   256 1   
   261   256   257 1   
   262   256   258 1   
   263   256   259 1   
   264   257   260 1   
   265   257   261 1   
   266   257   262 1   
   267   260   263 1   
   268   263   264 1   
   269   263   265 1   
   270   263   266 1   
   271   264   267 1   
   272   264   268 1   
   273   264   269 1   
   274   267   270 1   
   275   270   271 1   
   276   270   272 1   
   277   270   273 1   
   278   271   274 1   
   279   271   275 1   
   280   271   276 1   
   281   274   277 1   
   282   277   278 1   
   283   277   279 1   
   284   277   280 1   
   285   278   281 1   
   286   278   282 1   
   287   278   283 1   
   288   281   284 1   
   289   284   285 1   
   290   284   286 1   
   291   284   287 1   
   292   285   288 1   
   293   285   289 1   
   294   285   290 1   
   295   288   291 1   
   296   288   347 1   
   297   292   295 1   
   298   292   296 1   
   299   295   297 2   
   300   295   298 1   
   301   298   299 1   
   302   298   300 1   
   303   298   301 1   
   304   299   302 1   
   305   299   303 1   
   306   299   304 1   
   307   302   305 1   
   308   305   306 1   
   309   305   307 1   
   310   305   308 1   
   311   306   309 1   
   312   306   310 1   
   313   306   377 1   
   314   309   311 1   
   315   311   312 1   
   316   311   313 1   
   317   311   314 1   
   318   312   315 1   
   319   312   316 1   
   320   312   317 1   
   321   315   318 1   
   322   318   319 1   
   323   318   320 1   
   324   318   321 1   
   325   319   322 1   
   326   319   323 1   
   327   319   378 1   
   328   322   324 1   
   329   324   325 1   
   330   324   326 1   
   331   324   327 1   
   332   325   328 1   
   333   325   329 1   
   334   325   330 1   
   335   328   331 1   
   336   328   362 1   
   337   332   333 ar  
   338   332   339 ar  
   339   333   334 ar  
   340   333   344 1   
   341   334   335 1   
   342   334   336 ar  
   343   336   337 ar  
   344   336   341 1   
   345   337   338 1   
   346   337   339 ar  
   347   339   340 1   
   348   341   342 1   
   349   341   343 1   
   350   344   345 1   
   351   344   346 1   
   352   347   348 ar  
   353   347   354 ar  
   354   348   349 ar  
   355   348   359 1   
   356   349   350 1   
   357   349   351 ar  
   358   351   352 ar  
   359   351   356 1   
   360   352   353 1   
   361   352   354 ar  
   362   354   355 1   
   363   356   357 1   
   364   356   358 1   
   365   359   360 1   
   366   359   361 1   
   367   362   363 ar  
   368   362   370 ar  
   369   363   364 1   
   370   363   365 ar  
   371   365   366 1   
   372   365   367 ar  
   373   367   368 ar  
   374   367   371 1   
   375   368   369 1   
   376   368   370 ar  
   377   370   374 1   
   378   371   372 1   
   379   371   373 1   
   380   374   375 1   
   381   374   376 1   
@<TRIPOS>SUBSTRUCTURE
     1 MOL         1 TEMP              0 ****  ****    0 ROOT
