@<TRIPOS>MOLECULE
MOL
  378   381     1     0     0
SMALL
bcc


@<TRIPOS>ATOM
      1 N           -8.2900    12.5530   -13.7250 n          7 MOL      -0.562900
      2 N1          -4.6880     7.2120   -14.5480 n          7 MOL      -0.562900
      3 N2          -1.2850    10.8790   -13.9970 n          7 MOL      -0.562900
      4 C           -3.6610    11.2800   -13.7990 ca         7 MOL      -0.153933
      5 C1          -3.9990     9.9210   -13.8500 ca         7 MOL      -0.040667
      6 C2          -5.3170     9.5010   -14.0750 ca         7 MOL      -0.153933
      7 C3          -6.3170    10.4740   -14.2010 ca         7 MOL      -0.040667
      8 C4          -6.0140    11.8440   -14.1160 ca         7 MOL      -0.153933
      9 C5          -4.6800    12.2310   -13.9340 ca         7 MOL      -0.040667
     10 C6          -7.0920    12.8950   -14.2130 c          7 MOL       0.669367
     11 C7          -5.6660     8.0330   -14.1430 c          7 MOL       0.669367
     12 C8          -4.8200     5.7640   -14.5670 c3         7 MOL       0.084333
     13 C9          -9.3770    13.4670   -13.7820 c3         7 MOL       0.084333
     14 C10          0.1070    11.1770   -13.8200 c3         7 MOL       0.084333
     15 C11         -2.2350    11.7190   -13.5700 c          7 MOL       0.669367
     16 C12          0.8980     9.8780   -14.0280 c3         7 MOL      -0.104733
     17 C13          2.4050    10.1220   -13.8820 c3         7 MOL      -0.077400
     18 C14          3.1090     8.7730   -14.0980 c3         7 MOL      -0.078400
     19 C15          4.6350     8.9110   -13.9890 c3         7 MOL      -0.079400
     20 C16          5.2360     7.5170   -14.2030 c3         7 MOL      -0.078733
     21 C17          6.7660     7.5600   -14.1240 c3         7 MOL      -0.079400
     22 C18          7.2820     6.1280   -14.3270 c3         7 MOL      -0.079400
     23 C19          8.8160     6.0890   -14.2720 c3         7 MOL      -0.078400
     24 C20          9.2670     4.6330   -14.4550 c3         7 MOL      -0.078400
     25 C21         10.7980     4.5500   -14.4170 c3         7 MOL      -0.084067
     26 C22         11.2170     3.0780   -14.5770 c3         7 MOL       0.133067
     27 C23         13.0140     1.6280   -14.6450 c3         7 MOL       0.127733
     28 C24         14.4950     1.5460   -14.6860 c3         7 MOL       0.129067
     29 C25         16.0790    -0.0020   -14.9030 c3         7 MOL       0.129400
     30 C26         16.2330    -1.4250   -14.9590 c3         7 MOL       0.126400
     31 C27         17.9570    -2.7960   -15.2680 c3         7 MOL       0.129400
     32 C28         19.3420    -2.6170   -15.6110 c3         7 MOL       0.116733
     33 C29         21.0560    -3.8550   -16.2600 c3         7 MOL       0.104067
     34 C30         21.2850    -5.2920   -16.4190 c3         7 MOL       0.085000
     35 C31        -10.6980    12.7100   -13.6880 c3         7 MOL      -0.104733
     36 C32        -11.8430    13.7150   -13.7510 c3         7 MOL      -0.077400
     37 C33        -13.1660    12.9610   -13.6660 c3         7 MOL      -0.078400
     38 C34        -14.3180    13.9610   -13.7320 c3         7 MOL      -0.079400
     39 C35        -15.6340    13.1960   -13.6510 c3         7 MOL      -0.078733
     40 C36        -16.7910    14.1870   -13.7190 c3         7 MOL      -0.079400
     41 C37        -18.1020    13.4120   -13.6410 c3         7 MOL      -0.079400
     42 C38        -19.2700    14.3950   -13.7080 c3         7 MOL      -0.078400
     43 C39        -20.5770    13.6130   -13.6310 c3         7 MOL      -0.078400
     44 C40        -21.7480    14.5920   -13.6990 c3         7 MOL      -0.084067
     45 C41        -23.0540    13.8040   -13.6240 c3         7 MOL       0.133067
     46 C42        -25.3260    13.9990   -13.6290 c3         7 MOL       0.127733
     47 C43        -26.4490    14.9450   -13.7060 c3         7 MOL       0.129067
     48 C44        -28.6660    14.7200   -13.7140 c3         7 MOL       0.129400
     49 C45        -29.5420    13.6130   -13.6400 c3         7 MOL       0.126400
     50 C46        -31.6800    13.2000   -13.6720 c3         7 MOL       0.129400
     51 C47        -32.9210    13.9310   -13.7900 c3         7 MOL       0.116733
     52 C48        -35.1630    13.5160   -13.8740 c3         7 MOL       0.104067
     53 C49        -36.0860    12.3260   -13.8120 c3         7 MOL       0.085000
     54 C50         -6.0030     5.2360   -15.3900 c3         7 MOL      -0.104733
     55 C51         -5.9220     3.7210   -15.2480 c3         7 MOL      -0.077400
     56 C52         -7.0350     3.0040   -15.9950 c3         7 MOL      -0.078400
     57 C53         -6.7820     1.5160   -15.7540 c3         7 MOL      -0.079400
     58 C54         -7.8210     0.6290   -16.4310 c3         7 MOL      -0.078733
     59 C55         -7.4130    -0.8070   -16.1040 c3         7 MOL      -0.079400
     60 C56         -8.3730    -1.8210   -16.7130 c3         7 MOL      -0.079400
     61 C57         -7.8430    -3.2060   -16.3230 c3         7 MOL      -0.078400
     62 C58         -8.7300    -4.3210   -16.8740 c3         7 MOL      -0.078400
     63 C59         -8.1040    -5.6510   -16.4410 c3         7 MOL      -0.084067
     64 C60         -8.9350    -6.8320   -16.9460 c3         7 MOL       0.133067
     65 C61         -9.0010    -9.1350   -16.9330 c3         7 MOL       0.127733
     66 C62         -8.2570   -10.3220   -16.4930 c3         7 MOL       0.129067
     67 C63         -8.4790   -12.5130   -16.6650 c3         7 MOL       0.129400
     68 C64         -9.4250   -13.4190   -17.1980 c3         7 MOL       0.126400
     69 C65         -9.6110   -15.6000   -17.3750 c3         7 MOL       0.129400
     70 C66         -8.7960   -16.7380   -17.0480 c3         7 MOL       0.116733
     71 C67         -8.8110   -18.9810   -17.2740 c3         7 MOL       0.104067
     72 C68         -9.7070   -20.0540   -17.8050 c3         7 MOL       0.085000
     73 O           -6.8580    14.0090   -14.6840 o          7 MOL      -0.595100
     74 O1          -6.7910     7.6280   -13.8450 o          7 MOL      -0.595100
     75 O2          -1.9760    12.7900   -13.0190 o          7 MOL      -0.595100
     76 O3          12.6460     2.9740   -14.5570 os         7 MOL      -0.427933
     77 O4          14.7720     0.1890   -14.7650 os         7 MOL      -0.429600
     78 O5          17.5480    -1.5270   -15.1540 os         7 MOL      -0.428933
     79 O6          19.7930    -3.8510   -15.7760 os         7 MOL      -0.426600
     80 O8         -24.1570    14.7100   -13.6900 os         7 MOL      -0.427933
     81 O9         -27.5130    14.0980   -13.6420 os         7 MOL      -0.429600
     82 O10        -30.7380    14.1600   -13.7190 os         7 MOL      -0.428933
     83 O11        -33.8730    12.9750   -13.7530 os         7 MOL      -0.426600
     84 O13         -8.2900    -8.0360   -16.5210 os         7 MOL      -0.427933
     85 O14         -9.0300   -11.3530   -16.9410 os         7 MOL      -0.429600
     86 O15         -8.8570   -14.5830   -16.9400 os         7 MOL      -0.428933
     87 O16         -9.5070   -17.7880   -17.4750 os         7 MOL      -0.426600
     88 H253        -3.2260     9.1780   -13.7030 ha         7 MOL       0.161000
     89 H254        -7.3410    10.1560   -14.3590 ha         7 MOL       0.161000
     90 H255        -4.4330    13.2850   -13.8820 ha         7 MOL       0.161000
     91 H250        -8.3310    11.7010   -13.1810 hn         7 MOL       0.307500
     92 H251        -3.8670     7.6400   -14.9600 hn         7 MOL       0.307500
     93 H252        -1.5760    10.0950   -14.5660 hn         7 MOL       0.307500
     94 H6           0.2760    11.5910   -12.8150 h1         7 MOL       0.064533
     95 H7           0.4140    11.9230   -14.5660 h1         7 MOL       0.064533
     96 H8           0.6970     9.4910   -15.0380 hc         7 MOL       0.044533
     97 H9           0.5750     9.1360   -13.2830 hc         7 MOL       0.044533
     98 H10          2.6280    10.5050   -12.8760 hc         7 MOL       0.043700
     99 H11          2.7390    10.8480   -14.6370 hc         7 MOL       0.043700
    100 H12          2.8570     8.3920   -15.0980 hc         7 MOL       0.040700
    101 H13          2.7560     8.0620   -13.3380 hc         7 MOL       0.040700
    102 H14          4.9110     9.2860   -12.9920 hc         7 MOL       0.041033
    103 H15          5.0050     9.6030   -14.7600 hc         7 MOL       0.041033
    104 H16          4.9390     7.1410   -15.1930 hc         7 MOL       0.039867
    105 H17          4.8530     6.8390   -13.4270 hc         7 MOL       0.039867
    106 H18          7.0810     7.9310   -13.1380 hc         7 MOL       0.040367
    107 H19          7.1620     8.2180   -14.9110 hc         7 MOL       0.040367
    108 H20          6.9450     5.7560   -15.3050 hc         7 MOL       0.039533
    109 H21          6.8730     5.4870   -13.5330 hc         7 MOL       0.039533
    110 H22          9.1650     6.4600   -13.2980 hc         7 MOL       0.041867
    111 H23          9.2330     6.7120   -15.0750 hc         7 MOL       0.041867
    112 H24          8.9070     4.2560   -15.4220 hc         7 MOL       0.040200
    113 H25          8.8480     4.0210   -13.6440 hc         7 MOL       0.040200
    114 H26         11.1650     4.9340   -13.4540 hc         7 MOL       0.054867
    115 H27         11.2180     5.1510   -15.2370 hc         7 MOL       0.054867
    116 H28         10.8350     2.6870   -15.5320 h1         7 MOL       0.027033
    117 H29         10.7950     2.4920   -13.7470 h1         7 MOL       0.027033
    118 H30         12.6070     1.1850   -15.5650 h1         7 MOL       0.040700
    119 H31         12.6370     1.0780   -13.7720 h1         7 MOL       0.040700
    120 H32         14.9380     1.9790   -13.7760 h1         7 MOL       0.042200
    121 H33         14.8730     2.0720   -15.5780 h1         7 MOL       0.042200
    122 H34         16.6390     0.4050   -14.0500 h1         7 MOL       0.041700
    123 H35         16.4360     0.4480   -15.8400 h1         7 MOL       0.041700
    124 H36         15.6710    -1.8390   -15.8100 h1         7 MOL       0.045367
    125 H37         15.9150    -1.8990   -14.0180 h1         7 MOL       0.045367
    126 H38         17.4370    -3.3110   -16.0890 h1         7 MOL       0.050533
    127 H39         17.8400    -3.3540   -14.3270 h1         7 MOL       0.050533
    128 H40         19.8840    -2.0900   -14.8140 h1         7 MOL       0.042533
    129 H41         19.4050    -2.0510   -16.5520 h1         7 MOL       0.042533
    130 H42         21.7690    -3.4000   -15.5530 h1         7 MOL       0.032533
    131 H43         21.1010    -3.3470   -17.2360 h1         7 MOL       0.032533
    132 H46         -9.3200    14.0390   -14.7190 h1         7 MOL       0.064533
    133 H47         -9.3000    14.1660   -12.9380 h1         7 MOL       0.064533
    134 H48        -10.7440    12.1570   -12.7390 hc         7 MOL       0.044533
    135 H49        -10.7800    12.0060   -14.5290 hc         7 MOL       0.044533
    136 H50        -11.7950    14.2680   -14.7000 hc         7 MOL       0.043700
    137 H51        -11.7610    14.4190   -12.9110 hc         7 MOL       0.043700
    138 H52        -13.2130    12.4060   -12.7180 hc         7 MOL       0.040700
    139 H53        -13.2420    12.2580   -14.5070 hc         7 MOL       0.040700
    140 H54        -14.2720    14.5150   -14.6800 hc         7 MOL       0.041033
    141 H55        -14.2470    14.6640   -12.8900 hc         7 MOL       0.041033
    142 H56        -15.6810    12.6400   -12.7040 hc         7 MOL       0.039867
    143 H57        -15.7030    12.4930   -14.4940 hc         7 MOL       0.039867
    144 H58        -16.7460    14.7430   -14.6670 hc         7 MOL       0.040367
    145 H59        -16.7250    14.8900   -12.8760 hc         7 MOL       0.040367
    146 H60        -18.1420    12.8550   -12.6940 hc         7 MOL       0.039533
    147 H61        -18.1620    12.7090   -14.4840 hc         7 MOL       0.039533
    148 H62        -19.2290    14.9520   -14.6550 hc         7 MOL       0.041867
    149 H63        -19.2110    15.0980   -12.8650 hc         7 MOL       0.041867
    150 H64        -20.6180    13.0560   -12.6850 hc         7 MOL       0.040200
    151 H65        -20.6360    12.9110   -14.4750 hc         7 MOL       0.040200
    152 H66        -21.7050    15.1500   -14.6470 hc         7 MOL       0.054867
    153 H67        -21.6890    15.2950   -12.8560 hc         7 MOL       0.054867
    154 H68        -23.0900    13.2440   -12.6770 h1         7 MOL       0.027033
    155 H69        -23.1040    13.1000   -14.4690 h1         7 MOL       0.027033
    156 H70        -25.3840    13.4430   -12.6830 h1         7 MOL       0.040700
    157 H71        -25.3860    13.2990   -14.4740 h1         7 MOL       0.040700
    158 H72        -26.4320    15.4960   -14.6600 h1         7 MOL       0.042200
    159 H73        -26.4390    15.6450   -12.8560 h1         7 MOL       0.042200
    160 H74        -28.7860    15.2490   -14.6690 h1         7 MOL       0.041700
    161 H75        -28.8210    15.4030   -12.8670 h1         7 MOL       0.041700
    162 H76        -29.4050    13.0820   -12.6870 h1         7 MOL       0.045367
    163 H77        -29.3600    12.9320   -14.4840 h1         7 MOL       0.045367
    164 H78        -31.6410    12.6530   -12.7170 h1         7 MOL       0.050533
    165 H79        -31.5690    12.4990   -14.5150 h1         7 MOL       0.050533
    166 H80        -32.9460    14.4750   -14.7440 h1         7 MOL       0.042533
    167 H81        -33.0270    14.6320   -12.9500 h1         7 MOL       0.042533
    168 H82        -35.2720    14.0390   -14.8360 h1         7 MOL       0.032533
    169 H83        -35.3690    14.2080   -13.0420 h1         7 MOL       0.032533
    170 H86         -4.9690     5.4200   -13.5330 h1         7 MOL       0.064533
    171 H87         -3.8930     5.3290   -14.9660 h1         7 MOL       0.064533
    172 H88         -5.9070     5.5280   -16.4450 hc         7 MOL       0.044533
    173 H89         -6.9560     5.6080   -14.9820 hc         7 MOL       0.044533
    174 H90         -5.9870     3.4600   -14.1830 hc         7 MOL       0.043700
    175 H91         -4.9540     3.3840   -15.6450 hc         7 MOL       0.043700
    176 H92         -6.9850     3.2340   -17.0670 hc         7 MOL       0.040700
    177 H93         -8.0150     3.2990   -15.5940 hc         7 MOL       0.040700
    178 H94         -6.8040     1.3220   -14.6730 hc         7 MOL       0.041033
    179 H95         -5.7880     1.2600   -16.1470 hc         7 MOL       0.041033
    180 H96         -7.8090     0.7880   -17.5190 hc         7 MOL       0.039867
    181 H97         -8.8230     0.8440   -16.0330 hc         7 MOL       0.039867
    182 H98         -7.4030    -0.9360   -15.0120 hc         7 MOL       0.040367
    183 H99         -6.4030    -0.9870   -16.4990 hc         7 MOL       0.040367
    184 H100        -8.3880    -1.7160   -17.8080 hc         7 MOL       0.039533
    185 H101        -9.3850    -1.6710   -16.3100 hc         7 MOL       0.039533
    186 H102        -7.8100    -3.2830   -15.2270 hc         7 MOL       0.041867
    187 H103        -6.8270    -3.3240   -16.7260 hc         7 MOL       0.041867
    188 H104        -8.7670    -4.2650   -17.9710 hc         7 MOL       0.040200
    189 H105        -9.7460    -4.2290   -16.4630 hc         7 MOL       0.040200
    190 H106        -8.0540    -5.6870   -15.3430 hc         7 MOL       0.054867
    191 H107        -7.0880    -5.7190   -16.8540 hc         7 MOL       0.054867
    192 H108        -8.9890    -6.8060   -18.0450 h1         7 MOL       0.027033
    193 H109        -9.9500    -6.7790   -16.5240 h1         7 MOL       0.027033
    194 H110        -9.0870    -9.1470   -18.0280 h1         7 MOL       0.040700
    195 H111       -10.0020    -9.1360   -16.4810 h1         7 MOL       0.040700
    196 H112        -8.1650   -10.3450   -15.3950 h1         7 MOL       0.042200
    197 H113        -7.2590   -10.3450   -16.9590 h1         7 MOL       0.042200
    198 H114        -8.3660   -12.6640   -15.5820 h1         7 MOL       0.041700
    199 H115        -7.5100   -12.6270   -17.1720 h1         7 MOL       0.041700
    200 H116        -9.5410   -13.2590   -18.2790 h1         7 MOL       0.045367
    201 H117       -10.3920   -13.3130   -16.6870 h1         7 MOL       0.045367
    202 H118        -9.7700   -15.5440   -18.4630 h1         7 MOL       0.050533
    203 H119       -10.5770   -15.6400   -16.8470 h1         7 MOL       0.050533
    204 H120        -8.6250   -16.7880   -15.9640 h1         7 MOL       0.042533
    205 H121        -7.8370   -16.6700   -17.5810 h1         7 MOL       0.042533
    206 H122        -8.6120   -19.1390   -16.2020 h1         7 MOL       0.032533
    207 H123        -7.8640   -18.9660   -17.8360 h1         7 MOL       0.032533
    208 N4          22.5010    -5.5250   -16.9710 n          7 MOL      -0.571900
    209 H124        21.2140    -5.8060   -15.4500 h1         7 MOL       0.075867
    210 H125        20.5130    -5.7030   -17.0850 h1         7 MOL       0.075867
    211 C69         22.9580    -6.7970   -16.9650 c          7 MOL       0.657433
    212 H126        23.0380    -4.7890   -17.3750 hn         7 MOL       0.307833
    213 O17         22.1490    -7.5400   -16.4050 o          7 MOL      -0.603100
    214 C70         24.2590    -6.8100   -16.2950 c3         7 MOL      -0.160400
    215 C71         24.9740    -8.0880   -16.7160 c3         7 MOL       0.139400
    216 H127        24.1210    -6.8050   -15.2020 hc         7 MOL       0.079533
    217 H128        24.8360    -5.9270   -16.6020 hc         7 MOL       0.079533
    218 O18         26.2600    -8.1300   -16.1360 os         7 MOL      -0.437600
    219 H129        24.3840    -8.9570   -16.3900 h1         7 MOL       0.044033
    220 H130        25.0730    -8.1020   -17.8110 h1         7 MOL       0.044033
    221 C72         26.8550    -9.3250   -16.5480 c3         7 MOL       0.110067
    222 C73         28.2860    -9.3620   -16.0840 c3         7 MOL       0.124400
    223 H131        26.3010   -10.1810   -16.1330 h1         7 MOL       0.043033
    224 H132        26.8380    -9.3750   -17.6440 h1         7 MOL       0.043033
    225 O19         28.8220   -10.5750   -16.5440 os         7 MOL      -0.418267
    226 H133        28.8320    -8.5160   -16.5300 h1         7 MOL       0.054033
    227 H134        28.3450    -9.3070   -14.9860 h1         7 MOL       0.054033
    228 C74         30.1400   -10.6060   -16.2710 c3         7 MOL       0.097733
    229 C75         30.6480   -11.8750   -16.7540 c3         7 MOL       0.095733
    230 H135        30.3210   -10.5230   -15.1900 h1         7 MOL       0.053367
    231 H136        30.6510    -9.7870   -16.7970 h1         7 MOL       0.053367
    232 O20         31.9450   -11.7210   -16.4660 os         7 MOL      -0.411933
    233 H137        30.1990   -12.7240   -16.2130 h1         7 MOL       0.063700
    234 H138        30.4910   -11.9780   -17.8400 h1         7 MOL       0.063700
    235 C76         32.7060   -12.7650   -16.8110 c3         7 MOL       0.115400
    236 C77         34.0080   -12.2570   -16.4890 c3         7 MOL       0.086400
    237 H139        32.4660   -13.6590   -16.2200 h1         7 MOL       0.059033
    238 H140        32.6420   -12.9840   -17.8870 h1         7 MOL       0.059033
    239 O21         34.7610   -13.2360   -16.8170 os         7 MOL      -0.417267
    240 H151        34.2310   -11.3700   -17.0870 h1         7 MOL       0.053867
    241 H152        34.0880   -12.0390   -15.4210 h1         7 MOL       0.053867
    242 C78         36.0780   -13.0050   -16.6400 c3         7 MOL       0.104733
    243 C79         36.5280   -14.3400   -17.0360 c3         7 MOL       0.159467
    244 H153        36.4550   -12.1970   -17.3080 h1         7 MOL       0.060533
    245 H154        36.3210   -12.7870   -15.5840 h1         7 MOL       0.060533
    246 N5          37.8800   -14.4930   -16.9710 nh         7 MOL      -0.735600
    247 H155        36.0540   -15.0740   -16.3740 h1         7 MOL       0.081200
    248 H156        36.1880   -14.5370   -18.0640 h1         7 MOL       0.081200
    249 H157        38.4190   -13.6710   -16.8650 hn         7 MOL       0.441800
    250 N6         -37.4700    12.7430   -13.9260 n          7 MOL      -0.571900
    251 H158       -35.9380    11.8100   -12.8540 h1         7 MOL       0.075867
    252 H159       -35.8410    11.6410   -14.6370 h1         7 MOL       0.075867
    253 C80        -38.3060    11.5350   -13.8550 c          7 MOL       0.657433
    254 H160       -37.6230    13.2110   -14.8300 hn         7 MOL       0.307833
    255 O22        -37.9450    10.6520   -14.9170 o          7 MOL      -0.603100
    256 C81        -39.8030    11.8820   -13.9800 c3         7 MOL      -0.160400
    257 C82        -40.5920    10.5710   -13.8990 c3         7 MOL       0.139400
    258 H161       -39.9960    12.3740   -14.9460 hc         7 MOL       0.079533
    259 H162       -40.1030    12.5520   -13.1590 hc         7 MOL       0.079533
    260 O23        -42.0020    10.8200   -14.0020 os         7 MOL      -0.437600
    261 H163       -40.2740     9.9100   -14.7200 h1         7 MOL       0.044033
    262 H164       -40.3770    10.0850   -12.9370 h1         7 MOL       0.044033
    263 C83        -42.6540     9.6120   -13.9100 c3         7 MOL       0.110067
    264 C84        -44.1060     9.8380   -13.9820 c3         7 MOL       0.124400
    265 H165       -42.3500     8.9520   -14.7350 h1         7 MOL       0.043033
    266 H166       -42.4160     9.1350   -12.9500 h1         7 MOL       0.043033
    267 O24        -44.5760     8.5680   -13.8550 os         7 MOL      -0.418267
    268 H167       -44.4440    10.4720   -13.1460 h1         7 MOL       0.054033
    269 H168       -44.3970    10.2850   -14.9460 h1         7 MOL       0.054033
    270 C85        -45.8940     8.5100   -13.8470 c3         7 MOL       0.097733
    271 C86        -46.1110     7.1180   -13.6560 c3         7 MOL       0.095733
    272 H169       -46.3190     8.8530   -14.7970 h1         7 MOL       0.053367
    273 H170       -46.3200     9.0750   -13.0130 h1         7 MOL       0.053367
    274 O25        -47.4080     7.1020   -13.6180 os         7 MOL      -0.411933
    275 H171       -45.7090     6.5560   -14.5130 h1         7 MOL       0.063700
    276 H172       -45.6700     6.7610   -12.7150 h1         7 MOL       0.063700
    277 C87        -47.9460     5.8610   -13.6020 c3         7 MOL       0.115400
    278 C88        -49.3220     6.2920   -13.6870 c3         7 MOL       0.086400
    279 H173       -47.7400     5.3060   -12.6750 h1         7 MOL       0.059033
    280 O26        -50.1750     5.2400   -13.8580 os         7 MOL      -0.417267
    281 H174       -49.5860     6.8960   -12.8090 h1         7 MOL       0.053867
    282 H175       -49.3880     6.9180   -14.5900 h1         7 MOL       0.053867
    283 C89        -51.4030     5.8330   -14.1510 c3         7 MOL       0.104733
    284 C90        -52.3000     4.8520   -14.9090 c3         7 MOL       0.159467
    285 H176       -51.1930     6.6440   -14.8300 h1         7 MOL       0.060533
    286 H177       -51.8830     6.2350   -13.2420 h1         7 MOL       0.060533
    287 N7         -53.5160     5.5570   -15.4180 nh         7 MOL      -0.735600
    288 H178       -51.7250     4.4930   -15.7690 h1         7 MOL       0.081200
    289 H179       -52.5700     3.9990   -14.2620 h1         7 MOL       0.081200
    290 H180       -54.4080     5.2490   -15.0590 hn         7 MOL       0.441800
    291 N8          -9.0840   -21.3090   -17.6780 n          7 MOL      -0.571900
    292 H181        -9.9220   -19.8680   -18.8670 h1         7 MOL       0.075867
    293 H182       -10.6610   -20.0610   -17.2600 h1         7 MOL       0.075867
    294 C91         -9.7380   -22.4050   -18.0570 c          7 MOL       0.657433
    295 H183        -8.1600   -21.3800   -17.3210 hn         7 MOL       0.307833
    296 O27        -10.8850   -22.3050   -18.5060 o          7 MOL      -0.603100
    297 C92         -9.0890   -23.7640   -17.9630 c3         7 MOL      -0.160400
    298 C93        -10.0580   -24.8360   -18.4710 c3         7 MOL       0.139400
    299 H184        -8.7920   -23.9550   -16.9200 hc         7 MOL       0.079533
    300 H185        -8.1640   -23.7550   -18.5610 hc         7 MOL       0.079533
    301 O28         -9.4350   -26.1350   -18.4150 os         7 MOL      -0.437600
    302 H186       -10.3280   -24.6050   -19.5120 h1         7 MOL       0.044033
    303 H187       -10.9650   -24.8270   -17.8500 h1         7 MOL       0.044033
    304 C94        -10.3250   -27.0690   -18.8880 c3         7 MOL       0.110067
    305 C95         -9.6670   -28.3820   -18.8910 c3         7 MOL       0.124400
    306 H188       -11.2180   -27.1050   -18.2480 h1         7 MOL       0.043033
    307 H189       -10.6200   -26.8180   -19.9170 h1         7 MOL       0.043033
    308 O29        -10.6460   -29.1840   -19.3910 os         7 MOL      -0.418267
    309 H190        -8.7890   -28.3690   -19.5570 h1         7 MOL       0.054033
    310 H191        -9.3730   -28.6900   -17.8750 h1         7 MOL       0.054033
    311 C96        -10.2290   -30.4270   -19.5560 c3         7 MOL       0.097733
    312 C97        -11.3820   -31.0580   -20.1050 c3         7 MOL       0.095733
    313 H192        -9.9420   -30.8840   -18.6030 h1         7 MOL       0.053367
    314 H193        -9.3980   -30.4810   -20.2660 h1         7 MOL       0.053367
    315 O30        -10.9040   -32.2480   -20.2930 os         7 MOL      -0.411933
    316 H194       -11.6930   -30.5900   -21.0500 h1         7 MOL       0.063700
    317 H195       -12.2030   -31.0450   -19.3720 h1         7 MOL       0.063700
    318 C98        -11.8190   -33.1730   -20.6770 c3         7 MOL       0.115400
    319 C99        -10.9250   -34.2970   -20.6500 c3         7 MOL       0.086400
    320 H196       -12.2510   -32.9840   -21.6750 h1         7 MOL       0.059033
    321 H197       -12.6080   -33.2830   -19.9160 h1         7 MOL       0.059033
    322 O31        -11.5810   -35.4680   -20.8460 os         7 MOL      -0.417267
    323 H198       -10.1210   -34.1590   -21.3810 h1         7 MOL       0.053867
    324 H199       -10.4930   -34.3210   -19.6370 h1         7 MOL       0.053867
    325 C100       -10.6170   -36.4290   -20.5720 c3         7 MOL       0.104733
    326 C101       -11.2840   -37.7120   -20.1110 c3         7 MOL       0.159467
    327 H200       -10.0490   -36.0660   -19.7270 h1         7 MOL       0.060533
    328 H201        -9.9360   -36.5790   -21.4280 h1         7 MOL       0.060533
    329 N9         -10.2490   -38.6510   -19.6010 nh         7 MOL      -0.735600
    330 H202       -11.9510   -37.4470   -19.2850 h1         7 MOL       0.081200
    331 H203       -11.8690   -38.1600   -20.9340 h1         7 MOL       0.081200
    332 H204       -10.1270   -39.5240   -20.1190 hn         7 MOL       0.441800
    333 C102        38.5540   -15.7350   -17.0300 ca         7 MOL       0.294933
    334 C103        37.9860   -17.1880   -17.1820 ca         7 MOL      -0.269200
    335 C104        38.8300   -18.1800   -17.2040 ca         7 MOL       0.034333
    336 H205        38.4880   -19.1850   -17.3050 ha         7 MOL       0.196667
    337 C105        40.1580   -17.9320   -17.0990 ca         7 MOL      -0.250533
    338 C106        40.6850   -16.7270   -16.9730 ca         7 MOL       0.006000
    339 H206        41.7410   -16.6150   -16.8970 ha         7 MOL       0.178667
    340 C107        39.8590   -15.6010   -16.9370 ca         7 MOL      -0.235000
    341 H207        40.2780   -14.6520   -16.8340 ha         7 MOL       0.155000
    342 N10         40.9250   -18.8830   -17.1240 no         7 MOL       0.326533
    343 O32         42.1690   -18.6250   -17.0270 o          7 MOL      -0.207000
    344 O33         40.5700   -19.9950   -17.2290 o          7 MOL      -0.207000
    345 N11         36.6960   -17.6010   -17.3010 no         7 MOL       0.316200
    346 O34         36.4220   -18.8680   -17.4170 o          7 MOL      -0.203167
    347 O35         35.8110   -16.8520   -17.3030 o          7 MOL      -0.203167
    348 C108       -53.5060     6.6380   -16.3870 ca         7 MOL       0.294933
    349 C109       -52.3060     7.1790   -17.1500 ca         7 MOL      -0.269200
    350 C110       -52.4040     8.2300   -17.9040 ca         7 MOL       0.034333
    351 H208       -51.5620     8.6000   -18.4420 ha         7 MOL       0.196667
    352 C201       -53.6150     8.7960   -18.0590 ca         7 MOL      -0.250533
    353 C202       -54.7140     8.3470   -17.4660 ca         7 MOL       0.006000
    354 H209       -55.6310     8.8240   -17.6390 ha         7 MOL       0.178667
    355 C203       -54.6560     7.2430   -16.5870 ca         7 MOL      -0.235000
    356 H44        -55.5150     6.9280   -16.0880 ha         7 MOL       0.155000
    357 N12        -53.7260     9.7500   -18.8100 no         7 MOL       0.326533
    358 O36        -54.8650    10.1010   -19.0470 o          7 MOL      -0.207000
    359 O37        -52.8230    10.3370   -19.2830 o          7 MOL      -0.207000
    360 N13        -51.1490     6.6190   -17.1450 no         7 MOL       0.316200
    361 O38        -50.0560     7.3090   -16.8090 o          7 MOL      -0.203167
    362 O39        -51.1140     5.4770   -17.4300 o          7 MOL      -0.203167
    363 C204        -9.4030   -38.4270   -18.4130 ca         7 MOL       0.294933
    364 C205        -8.3830   -39.4140   -18.2200 ca         7 MOL      -0.235000
    365 H45         -8.2870   -40.2090   -18.8860 ha         7 MOL       0.155000
    366 C206        -7.5780   -39.3230   -17.1870 ca         7 MOL       0.006000
    367 H84         -6.8300   -40.0460   -17.0240 ha         7 MOL       0.178667
    368 C207        -7.7100   -38.2270   -16.2920 ca         7 MOL      -0.250533
    369 C208        -8.6000   -37.3050   -16.4460 ca         7 MOL       0.034333
    370 H85         -8.6710   -36.5040   -15.7450 ha         7 MOL       0.196667
    371 C209        -9.4820   -37.4110   -17.5020 ca         7 MOL      -0.269200
    372 N14        -10.4220   -36.4980   -17.4960 no         7 MOL       0.316200
    373 O40        -11.6490   -36.9450   -17.2920 o          7 MOL      -0.203167
    374 O41        -10.1840   -35.3380   -17.6170 o          7 MOL      -0.203167
    375 N15         -6.9470   -38.1820   -15.3480 no         7 MOL       0.326533
    376 O42         -6.7980   -37.1380   -14.5460 o          7 MOL      -0.207000
    377 O43         -6.2850   -39.1080   -15.2060 o          7 MOL      -0.207000
    378 H141       -47.6530     5.2890   -14.4820 h1         7 MOL       0.059033
@<TRIPOS>BOND
     1     1    10 1   
     2     1    13 1   
     3     1    91 1   
     4     2    11 1   
     5     2    12 1   
     6     2    92 1   
     7     3    14 1   
     8     3    15 1   
     9     3    93 1   
    10     4     5 ar  
    11     4     9 ar  
    12     4    15 1   
    13     5     6 ar  
    14     5    88 1   
    15     6     7 ar  
    16     6    11 1   
    17     7     8 ar  
    18     7    89 1   
    19     8     9 ar  
    20     8    10 1   
    21     9    90 1   
    22    10    73 2   
    23    11    74 2   
    24    12    54 1   
    25    12   170 1   
    26    12   171 1   
    27    13    35 1   
    28    13   132 1   
    29    13   133 1   
    30    14    16 1   
    31    14    94 1   
    32    14    95 1   
    33    15    75 2   
    34    16    17 1   
    35    16    96 1   
    36    16    97 1   
    37    17    18 1   
    38    17    98 1   
    39    17    99 1   
    40    18    19 1   
    41    18   100 1   
    42    18   101 1   
    43    19    20 1   
    44    19   102 1   
    45    19   103 1   
    46    20    21 1   
    47    20   104 1   
    48    20   105 1   
    49    21    22 1   
    50    21   106 1   
    51    21   107 1   
    52    22    23 1   
    53    22   108 1   
    54    22   109 1   
    55    23    24 1   
    56    23   110 1   
    57    23   111 1   
    58    24    25 1   
    59    24   112 1   
    60    24   113 1   
    61    25    26 1   
    62    25   114 1   
    63    25   115 1   
    64    26    76 1   
    65    26   116 1   
    66    26   117 1   
    67    27    28 1   
    68    27    76 1   
    69    27   118 1   
    70    27   119 1   
    71    28    77 1   
    72    28   120 1   
    73    28   121 1   
    74    29    30 1   
    75    29    77 1   
    76    29   122 1   
    77    29   123 1   
    78    30    78 1   
    79    30   124 1   
    80    30   125 1   
    81    31    32 1   
    82    31    78 1   
    83    31   126 1   
    84    31   127 1   
    85    32    79 1   
    86    32   128 1   
    87    32   129 1   
    88    33    34 1   
    89    33    79 1   
    90    33   130 1   
    91    33   131 1   
    92    34   208 1   
    93    34   209 1   
    94    34   210 1   
    95    35    36 1   
    96    35   134 1   
    97    35   135 1   
    98    36    37 1   
    99    36   136 1   
   100    36   137 1   
   101    37    38 1   
   102    37   138 1   
   103    37   139 1   
   104    38    39 1   
   105    38   140 1   
   106    38   141 1   
   107    39    40 1   
   108    39   142 1   
   109    39   143 1   
   110    40    41 1   
   111    40   144 1   
   112    40   145 1   
   113    41    42 1   
   114    41   146 1   
   115    41   147 1   
   116    42    43 1   
   117    42   148 1   
   118    42   149 1   
   119    43    44 1   
   120    43   150 1   
   121    43   151 1   
   122    44    45 1   
   123    44   152 1   
   124    44   153 1   
   125    45    80 1   
   126    45   154 1   
   127    45   155 1   
   128    46    47 1   
   129    46    80 1   
   130    46   156 1   
   131    46   157 1   
   132    47    81 1   
   133    47   158 1   
   134    47   159 1   
   135    48    49 1   
   136    48    81 1   
   137    48   160 1   
   138    48   161 1   
   139    49    82 1   
   140    49   162 1   
   141    49   163 1   
   142    50    51 1   
   143    50    82 1   
   144    50   164 1   
   145    50   165 1   
   146    51    83 1   
   147    51   166 1   
   148    51   167 1   
   149    52    53 1   
   150    52    83 1   
   151    52   168 1   
   152    52   169 1   
   153    53   250 1   
   154    53   251 1   
   155    53   252 1   
   156    54    55 1   
   157    54   172 1   
   158    54   173 1   
   159    55    56 1   
   160    55   174 1   
   161    55   175 1   
   162    56    57 1   
   163    56   176 1   
   164    56   177 1   
   165    57    58 1   
   166    57   178 1   
   167    57   179 1   
   168    58    59 1   
   169    58   180 1   
   170    58   181 1   
   171    59    60 1   
   172    59   182 1   
   173    59   183 1   
   174    60    61 1   
   175    60   184 1   
   176    60   185 1   
   177    61    62 1   
   178    61   186 1   
   179    61   187 1   
   180    62    63 1   
   181    62   188 1   
   182    62   189 1   
   183    63    64 1   
   184    63   190 1   
   185    63   191 1   
   186    64    84 1   
   187    64   192 1   
   188    64   193 1   
   189    65    66 1   
   190    65    84 1   
   191    65   194 1   
   192    65   195 1   
   193    66    85 1   
   194    66   196 1   
   195    66   197 1   
   196    67    68 1   
   197    67    85 1   
   198    67   198 1   
   199    67   199 1   
   200    68    86 1   
   201    68   200 1   
   202    68   201 1   
   203    69    70 1   
   204    69    86 1   
   205    69   202 1   
   206    69   203 1   
   207    70    87 1   
   208    70   204 1   
   209    70   205 1   
   210    71    72 1   
   211    71    87 1   
   212    71   206 1   
   213    71   207 1   
   214    72   291 1   
   215    72   292 1   
   216    72   293 1   
   217   208   211 1   
   218   208   212 1   
   219   211   213 2   
   220   211   214 1   
   221   214   215 1   
   222   214   216 1   
   223   214   217 1   
   224   215   218 1   
   225   215   219 1   
   226   215   220 1   
   227   218   221 1   
   228   221   222 1   
   229   221   223 1   
   230   221   224 1   
   231   222   225 1   
   232   222   226 1   
   233   222   227 1   
   234   225   228 1   
   235   228   229 1   
   236   228   230 1   
   237   228   231 1   
   238   229   232 1   
   239   229   233 1   
   240   229   234 1   
   241   232   235 1   
   242   235   236 1   
   243   235   237 1   
   244   235   238 1   
   245   236   239 1   
   246   236   240 1   
   247   236   241 1   
   248   239   242 1   
   249   242   243 1   
   250   242   244 1   
   251   242   245 1   
   252   243   246 1   
   253   243   247 1   
   254   243   248 1   
   255   246   249 1   
   256   246   333 1   
   257   250   253 1   
   258   250   254 1   
   259   253   255 2   
   260   253   256 1   
   261   256   257 1   
   262   256   258 1   
   263   256   259 1   
   264   257   260 1   
   265   257   261 1   
   266   257   262 1   
   267   260   263 1   
   268   263   264 1   
   269   263   265 1   
   270   263   266 1   
   271   264   267 1   
   272   264   268 1   
   273   264   269 1   
   274   267   270 1   
   275   270   271 1   
   276   270   272 1   
   277   270   273 1   
   278   271   274 1   
   279   271   275 1   
   280   271   276 1   
   281   274   277 1   
   282   277   278 1   
   283   277   279 1   
   284   277   378 1   
   285   278   280 1   
   286   278   281 1   
   287   278   282 1   
   288   280   283 1   
   289   283   284 1   
   290   283   285 1   
   291   283   286 1   
   292   284   287 1   
   293   284   288 1   
   294   284   289 1   
   295   287   290 1   
   296   287   348 1   
   297   291   294 1   
   298   291   295 1   
   299   294   296 2   
   300   294   297 1   
   301   297   298 1   
   302   297   299 1   
   303   297   300 1   
   304   298   301 1   
   305   298   302 1   
   306   298   303 1   
   307   301   304 1   
   308   304   305 1   
   309   304   306 1   
   310   304   307 1   
   311   305   308 1   
   312   305   309 1   
   313   305   310 1   
   314   308   311 1   
   315   311   312 1   
   316   311   313 1   
   317   311   314 1   
   318   312   315 1   
   319   312   316 1   
   320   312   317 1   
   321   315   318 1   
   322   318   319 1   
   323   318   320 1   
   324   318   321 1   
   325   319   322 1   
   326   319   323 1   
   327   319   324 1   
   328   322   325 1   
   329   325   326 1   
   330   325   327 1   
   331   325   328 1   
   332   326   329 1   
   333   326   330 1   
   334   326   331 1   
   335   329   332 1   
   336   329   363 1   
   337   333   334 ar  
   338   333   340 ar  
   339   334   335 ar  
   340   334   345 1   
   341   335   336 1   
   342   335   337 ar  
   343   337   338 ar  
   344   337   342 1   
   345   338   339 1   
   346   338   340 ar  
   347   340   341 1   
   348   342   343 1   
   349   342   344 1   
   350   345   346 1   
   351   345   347 1   
   352   348   349 ar  
   353   348   355 ar  
   354   349   350 ar  
   355   349   360 1   
   356   350   351 1   
   357   350   352 ar  
   358   352   353 ar  
   359   352   357 1   
   360   353   354 1   
   361   353   355 ar  
   362   355   356 1   
   363   357   358 1   
   364   357   359 1   
   365   360   361 1   
   366   360   362 1   
   367   363   364 ar  
   368   363   371 ar  
   369   364   365 1   
   370   364   366 ar  
   371   366   367 1   
   372   366   368 ar  
   373   368   369 ar  
   374   368   375 1   
   375   369   370 1   
   376   369   371 ar  
   377   371   372 1   
   378   372   373 1   
   379   372   374 1   
   380   375   376 1   
   381   375   377 1   
@<TRIPOS>SUBSTRUCTURE
     1 MOL         1 TEMP              0 ****  ****    0 ROOT
