@<TRIPOS>MOLECULE
MOL
  219   219     1     0     0
SMALL
bcc


@<TRIPOS>ATOM
      1 N           -8.2900    12.5530   -13.7250 n          7 MOL      -0.563233
      2 N1          -4.6880     7.2120   -14.5480 n          7 MOL      -0.563233
      3 N2          -1.2850    10.8790   -13.9970 n          7 MOL      -0.563233
      4 C           -3.6610    11.2800   -13.7990 ca         7 MOL      -0.153933
      5 C1          -3.9990     9.9210   -13.8500 ca         7 MOL      -0.040667
      6 C2          -5.3170     9.5010   -14.0750 ca         7 MOL      -0.153933
      7 C3          -6.3170    10.4740   -14.2010 ca         7 MOL      -0.040667
      8 C4          -6.0140    11.8440   -14.1160 ca         7 MOL      -0.153933
      9 C5          -4.6800    12.2310   -13.9340 ca         7 MOL      -0.040667
     10 C6          -7.0920    12.8950   -14.2130 c          7 MOL       0.669367
     11 C7          -5.6660     8.0330   -14.1430 c          7 MOL       0.669367
     12 C8          -4.7810     5.7570   -14.5930 c3         7 MOL       0.084333
     13 C9          -9.3790    13.4720   -13.7770 c3         7 MOL       0.084333
     14 C10          0.1020    11.1770   -13.7990 c3         7 MOL       0.084333
     15 C11         -2.2350    11.7190   -13.5700 c          7 MOL       0.669367
     16 C12          0.9040     9.8980   -14.0500 c3         7 MOL      -0.104400
     17 C13          2.4010    10.1480   -13.8500 c3         7 MOL      -0.077400
     18 C14          3.1190     8.8210   -14.1120 c3         7 MOL      -0.078400
     19 C15          4.6340     8.9610   -13.9320 c3         7 MOL      -0.079400
     20 C16          5.2460     7.5870   -14.2110 c3         7 MOL      -0.078733
     21 C17          6.7670     7.6210   -14.0530 c3         7 MOL      -0.079400
     22 C18          7.2840     6.2100   -14.3470 c3         7 MOL      -0.079400
     23 C19          8.8080     6.1500   -14.2120 c3         7 MOL      -0.078400
     24 C20          9.2500     4.7170   -14.5170 c3         7 MOL      -0.078400
     25 C21         10.7700     4.6010   -14.3970 c3         7 MOL      -0.084400
     26 C22         11.1710     3.1540   -14.7120 c3         7 MOL       0.133400
     27 C23         12.9410     1.7050   -14.9010 c3         7 MOL       0.128400
     28 C24         14.4070     1.5870   -14.7970 c3         7 MOL       0.130400
     29 C25         15.9430     0.0140   -15.0620 c3         7 MOL       0.130400
     30 C26         16.0190    -1.3650   -15.4060 c3         7 MOL       0.129400
     31 C27         17.6750    -2.8110   -15.6490 c3         7 MOL       0.130400
     32 C28         19.0980    -2.7290   -15.5240 c3         7 MOL       0.128400
     33 C29         20.8980    -4.0020   -15.7090 c3         7 MOL       0.094400
     34 C30         21.2280    -5.4060   -16.0270 c3         7 MOL       0.125400
     35 C31        -10.7090    12.7200   -13.7270 c3         7 MOL      -0.104400
     36 C32        -11.8520    13.7340   -13.7750 c3         7 MOL      -0.077400
     37 C33        -13.1840    12.9840   -13.7320 c3         7 MOL      -0.078400
     38 C34        -14.3380    13.9890   -13.7780 c3         7 MOL      -0.079400
     39 C35        -15.6590    13.2210   -13.7380 c3         7 MOL      -0.078733
     40 C36        -16.8260    14.2090   -13.7790 c3         7 MOL      -0.079400
     41 C37        -18.1330    13.4170   -13.7400 c3         7 MOL      -0.079400
     42 C38        -19.3230    14.3810   -13.7760 c3         7 MOL      -0.078400
     43 C39        -20.6150    13.5640   -13.7370 c3         7 MOL      -0.078400
     44 C40        -21.8190    14.5090   -13.7660 c3         7 MOL      -0.084400
     45 C41        -23.0980    13.6680   -13.7280 c3         7 MOL       0.133400
     46 C42        -25.3810    13.7500   -13.7190 c3         7 MOL       0.128400
     47 C43        -26.5600    14.6340   -13.7350 c3         7 MOL       0.130400
     48 C44        -28.7670    14.3000   -13.7070 c3         7 MOL       0.130400
     49 C45        -29.6110    13.1600   -13.6760 c3         7 MOL       0.129400
     50 C46        -31.7650    12.7590   -13.6560 c3         7 MOL       0.130400
     51 C47        -32.9590    13.5390   -13.6640 c3         7 MOL       0.128400
     52 C48        -35.1560    13.2080   -13.6700 c3         7 MOL       0.094400
     53 C49        -36.0740    12.0520   -13.6790 c3         7 MOL       0.125400
     54 C50         -6.0020     5.1850   -15.3300 c3         7 MOL      -0.104400
     55 C51         -5.8410     3.6690   -15.2020 c3         7 MOL      -0.077400
     56 C52         -6.9670     2.8890   -15.8710 c3         7 MOL      -0.078400
     57 C53         -6.6250     1.4080   -15.6450 c3         7 MOL      -0.079400
     58 C54         -7.6600     0.4630   -16.2590 c3         7 MOL      -0.078733
     59 C55         -7.1730    -0.9610   -15.9540 c3         7 MOL      -0.079400
     60 C56         -8.1250    -2.0170   -16.5200 c3         7 MOL      -0.079400
     61 C57         -7.5370    -3.3940   -16.1640 c3         7 MOL      -0.078400
     62 C58         -8.4200    -4.5300   -16.6950 c3         7 MOL      -0.078400
     63 C59         -7.7600    -5.8640   -16.3050 c3         7 MOL      -0.084400
     64 C60         -8.5990    -7.0480   -16.8140 c3         7 MOL       0.133400
     65 C61         -8.6740    -9.3550   -16.8870 c3         7 MOL       0.128400
     66 C62         -7.9570   -10.5800   -16.4850 c3         7 MOL       0.130400
     67 C63         -8.2480   -12.7700   -16.7170 c3         7 MOL       0.130400
     68 C64         -9.2060   -13.6350   -17.3090 c3         7 MOL       0.129400
     69 C65         -9.4630   -15.8050   -17.5370 c3         7 MOL       0.130400
     70 C66         -8.7340   -16.9730   -17.1560 c3         7 MOL       0.128400
     71 C67         -8.9210   -19.1800   -17.3290 c3         7 MOL       0.094400
     72 C68         -9.8850   -20.1440   -17.8980 c3         7 MOL       0.125400
     73 O           -6.8580    14.0090   -14.6840 o          7 MOL      -0.595767
     74 O1          -6.7910     7.6280   -13.8450 o          7 MOL      -0.595767
     75 O2          -1.9760    12.7900   -13.0190 o          7 MOL      -0.595767
     76 O3          12.5900     3.0140   -14.6110 os         7 MOL      -0.427600
     77 O4          14.6500     0.2690   -15.1040 os         7 MOL      -0.430600
     78 O5          17.3300    -1.5610   -15.3530 os         7 MOL      -0.430600
     79 O6          19.5230    -3.9450   -15.8060 os         7 MOL      -0.425600
     80 O7          22.6060    -5.5610   -15.9460 oh         7 MOL      -0.592800
     81 O8         -24.2440    14.5260   -13.7500 os         7 MOL      -0.427600
     82 O9         -27.5840    13.7280   -13.7020 os         7 MOL      -0.430600
     83 O10        -30.8220    13.6970   -13.6790 os         7 MOL      -0.430600
     84 O11        -33.9090    12.6260   -13.6470 os         7 MOL      -0.425600
     85 O12        -37.3760    12.5250   -13.7130 oh         7 MOL      -0.592800
     86 O13         -7.9470    -8.2710   -16.4370 os         7 MOL      -0.427600
     87 O14         -8.7530   -11.5810   -16.9790 os         7 MOL      -0.430600
     88 O15         -8.6960   -14.8330   -17.0510 os         7 MOL      -0.430600
     89 O16         -9.4770   -17.9560   -17.6260 os         7 MOL      -0.425600
     90 O17         -9.4250   -21.4270   -17.6450 oh         7 MOL      -0.592800
     91 H253        -3.2260     9.1780   -13.7030 ha         7 MOL       0.160667
     92 H254        -7.3410    10.1560   -14.3590 ha         7 MOL       0.160667
     93 H255        -4.4330    13.2850   -13.8820 ha         7 MOL       0.160667
     94 H250        -8.3310    11.7010   -13.1810 hn         7 MOL       0.307833
     95 H251        -3.8670     7.6400   -14.9600 hn         7 MOL       0.307833
     96 H252        -1.5760    10.0950   -14.5660 hn         7 MOL       0.307833
     97 H6           0.2550    11.5470   -12.7750 h1         7 MOL       0.064700
     98 H7           0.4120    11.9600   -14.5060 h1         7 MOL       0.064700
     99 H8           0.7300     9.5560   -15.0800 hc         7 MOL       0.044700
    100 H9           0.5710     9.1200   -13.3460 hc         7 MOL       0.044700
    101 H10          2.5890    10.4800   -12.8190 hc         7 MOL       0.043700
    102 H11          2.7510    10.9150   -14.5550 hc         7 MOL       0.043700
    103 H12          2.9080     8.4960   -15.1410 hc         7 MOL       0.040700
    104 H13          2.7430     8.0660   -13.4070 hc         7 MOL       0.040700
    105 H14          4.8650     9.2710   -12.9030 hc         7 MOL       0.040867
    106 H15          5.0330     9.7010   -14.6410 hc         7 MOL       0.040867
    107 H16          4.9970     7.2830   -15.2370 hc         7 MOL       0.039867
    108 H17          4.8280     6.8570   -13.5030 hc         7 MOL       0.039867
    109 H18          7.0310     7.9110   -13.0260 hc         7 MOL       0.040533
    110 H19          7.2020     8.3370   -14.7650 hc         7 MOL       0.040533
    111 H20          7.0000     5.9290   -15.3710 hc         7 MOL       0.039700
    112 H21          6.8290     5.5050   -13.6360 hc         7 MOL       0.039700
    113 H22          9.1040     6.4190   -13.1880 hc         7 MOL       0.041867
    114 H23          9.2750     6.8430   -14.9260 hc         7 MOL       0.041867
    115 H24          8.9440     4.4520   -15.5390 hc         7 MOL       0.040033
    116 H25          8.7750     4.0290   -13.8040 hc         7 MOL       0.040033
    117 H26         11.0810     4.8600   -13.3750 hc         7 MOL       0.055200
    118 H27         11.2490     5.2840   -15.1130 hc         7 MOL       0.055200
    119 H28         10.8490     2.9020   -15.7340 h1         7 MOL       0.027533
    120 H29         10.6820     2.4760   -13.9960 h1         7 MOL       0.027533
    121 H30         12.6290     1.4480   -15.9220 h1         7 MOL       0.039700
    122 H31         12.4690     1.0180   -14.1850 h1         7 MOL       0.039700
    123 H32         14.7440     1.8220   -13.7750 h1         7 MOL       0.042533
    124 H33         14.8990     2.2550   -15.5220 h1         7 MOL       0.042533
    125 H34         16.3500     0.1780   -14.0540 h1         7 MOL       0.042200
    126 H35         16.4920     0.6180   -15.7970 h1         7 MOL       0.042200
    127 H36         15.6220    -1.5360   -16.4180 h1         7 MOL       0.042700
    128 H37         15.4830    -1.9830   -14.6700 h1         7 MOL       0.042700
    129 H38         17.3870    -3.0800   -16.6770 h1         7 MOL       0.042700
    130 H39         17.2580    -3.5310   -14.9290 h1         7 MOL       0.042700
    131 H40         19.3670    -2.4440   -14.4970 h1         7 MOL       0.042200
    132 H41         19.4970    -1.9940   -16.2370 h1         7 MOL       0.042200
    133 H42         21.2260    -3.7550   -14.6850 h1         7 MOL       0.033700
    134 H43         21.3690    -3.3180   -16.4320 h1         7 MOL       0.033700
    135 H44         20.7330    -6.0660   -15.3020 h1         7 MOL       0.059200
    136 H45         20.8790    -5.6430   -17.0420 h1         7 MOL       0.059200
    137 H46         -9.3040    14.0720   -14.6960 h1         7 MOL       0.064700
    138 H47         -9.3160    14.1470   -12.9110 h1         7 MOL       0.064700
    139 H48        -10.7720    12.1390   -12.7960 hc         7 MOL       0.044700
    140 H49        -10.7820    12.0420   -14.5900 hc         7 MOL       0.044700
    141 H50        -11.7880    14.3170   -14.7050 hc         7 MOL       0.043700
    142 H51        -11.7790    14.4110   -12.9130 hc         7 MOL       0.043700
    143 H52        -13.2440    12.3980   -12.8040 hc         7 MOL       0.040700
    144 H53        -13.2520    12.3090   -14.5970 hc         7 MOL       0.040700
    145 H54        -14.2820    14.5770   -14.7050 hc         7 MOL       0.040867
    146 H55        -14.2770    14.6630   -12.9110 hc         7 MOL       0.040867
    147 H56        -15.7120    12.6310   -12.8120 hc         7 MOL       0.039867
    148 H57        -15.7170    12.5480   -14.6060 hc         7 MOL       0.039867
    149 H58        -16.7780    14.8010   -14.7040 hc         7 MOL       0.040533
    150 H59        -16.7730    14.8790   -12.9090 hc         7 MOL       0.040533
    151 H60        -18.1710    12.8220   -12.8170 hc         7 MOL       0.039700
    152 H61        -18.1780    12.7460   -14.6110 hc         7 MOL       0.039700
    153 H62        -19.2910    14.9770   -14.6980 hc         7 MOL       0.041867
    154 H63        -19.2840    15.0500   -12.9040 hc         7 MOL       0.041867
    155 H64        -20.6420    12.9660   -12.8150 hc         7 MOL       0.040033
    156 H65        -20.6510    12.8960   -14.6090 hc         7 MOL       0.040033
    157 H66        -21.7950    15.1080   -14.6880 hc         7 MOL       0.055200
    158 H67        -21.7850    15.1750   -12.8920 hc         7 MOL       0.055200
    159 H68        -23.1100    13.0650   -12.8070 h1         7 MOL       0.027533
    160 H69        -23.1210    13.0000   -14.6030 h1         7 MOL       0.027533
    161 H70        -25.3990    13.1440   -12.8020 h1         7 MOL       0.039700
    162 H71        -25.4130    13.0910   -14.5970 h1         7 MOL       0.039700
    163 H72        -26.5880    15.2360   -14.6570 h1         7 MOL       0.042533
    164 H73        -26.5750    15.2870   -12.8480 h1         7 MOL       0.042533
    165 H74        -28.9360    14.8820   -14.6230 h1         7 MOL       0.042200
    166 H75        -28.9230    14.9240   -12.8170 h1         7 MOL       0.042200
    167 H76        -29.4300    12.5770   -12.7610 h1         7 MOL       0.042700
    168 H77        -29.4420    12.5370   -14.5660 h1         7 MOL       0.042700
    169 H78        -31.7070    12.1490   -12.7420 h1         7 MOL       0.042700
    170 H79        -31.7190    12.1190   -14.5490 h1         7 MOL       0.042700
    171 H80        -33.0070    14.1490   -14.5770 h1         7 MOL       0.042200
    172 H81        -33.0030    14.1810   -12.7730 h1         7 MOL       0.042200
    173 H82        -35.2890    13.8100   -14.5840 h1         7 MOL       0.033700
    174 H83        -35.3160    13.8310   -12.7760 h1         7 MOL       0.033700
    175 H84        -35.9120    11.4500   -12.7740 h1         7 MOL       0.059200
    176 H85        -35.8730    11.4410   -14.5700 h1         7 MOL       0.059200
    177 H86         -4.8380     5.3920   -13.5560 h1         7 MOL       0.064700
    178 H87         -3.8700     5.3620   -15.0640 h1         7 MOL       0.064700
    179 H88         -5.9970     5.4860   -16.3880 hc         7 MOL       0.044700
    180 H89         -6.9370     5.5130   -14.8500 hc         7 MOL       0.044700
    181 H90         -5.8180     3.4060   -14.1350 hc         7 MOL       0.043700
    182 H91         -4.8880     3.3780   -15.6660 hc         7 MOL       0.043700
    183 H92         -6.9990     3.1170   -16.9440 hc         7 MOL       0.040700
    184 H93         -7.9310     3.1370   -15.4070 hc         7 MOL       0.040700
    185 H94         -6.5710     1.2180   -14.5630 hc         7 MOL       0.040867
    186 H95         -5.6460     1.2000   -16.0980 hc         7 MOL       0.040867
    187 H96         -7.7180     0.6180   -17.3450 hc         7 MOL       0.039867
    188 H97         -8.6470     0.6330   -15.8050 hc         7 MOL       0.039867
    189 H98         -7.1020    -1.0890   -14.8640 hc         7 MOL       0.040533
    190 H99         -6.1790    -1.1000   -16.4010 hc         7 MOL       0.040533
    191 H100        -8.1950    -1.9080   -17.6120 hc         7 MOL       0.039700
    192 H101        -9.1220    -1.9020   -16.0700 hc         7 MOL       0.039700
    193 H102        -7.4570    -3.4810   -15.0710 hc         7 MOL       0.041867
    194 H103        -6.5350    -3.4820   -16.6100 hc         7 MOL       0.041867
    195 H104        -8.4990    -4.4600   -17.7890 hc         7 MOL       0.040033
    196 H105        -9.4220    -4.4640   -16.2470 hc         7 MOL       0.040033
    197 H106        -7.6760    -5.9200   -15.2100 hc         7 MOL       0.055200
    198 H107        -6.7560    -5.9120   -16.7510 hc         7 MOL       0.055200
    199 H108        -8.6810    -6.9960   -17.9100 h1         7 MOL       0.027533
    200 H109        -9.6030    -7.0090   -16.3670 h1         7 MOL       0.027533
    201 H110        -8.7590    -9.3280   -17.9820 h1         7 MOL       0.039700
    202 H111        -9.6770    -9.3550   -16.4370 h1         7 MOL       0.039700
    203 H112        -7.8760   -10.6430   -15.3880 h1         7 MOL       0.042533
    204 H113        -6.9560   -10.6100   -16.9430 h1         7 MOL       0.042533
    205 H114        -8.1810   -12.9530   -15.6360 h1         7 MOL       0.042200
    206 H115        -7.2660   -12.9040   -17.1910 h1         7 MOL       0.042200
    207 H116        -9.2730   -13.4490   -18.3910 h1         7 MOL       0.042700
    208 H117       -10.1890   -13.5020   -16.8350 h1         7 MOL       0.042700
    209 H118        -9.5490   -15.7430   -18.6330 h1         7 MOL       0.042700
    210 H119       -10.4600   -15.8040   -17.0730 h1         7 MOL       0.042700
    211 H120        -8.6480   -17.0240   -16.0620 h1         7 MOL       0.042200
    212 H121        -7.7370   -16.9680   -17.6180 h1         7 MOL       0.042200
    213 H122        -8.8390   -19.3170   -16.2390 h1         7 MOL       0.033700
    214 H123        -7.9330   -19.2880   -17.8030 h1         7 MOL       0.033700
    215 H124        -9.9730   -19.9790   -18.9800 h1         7 MOL       0.059200
    216 H125       -10.8640   -19.9960   -17.4210 h1         7 MOL       0.059200
    217 H126        -8.5490   -21.5690   -18.0860 ho         7 MOL       0.398000
    218 H127       -37.5660    13.0640   -12.9040 ho         7 MOL       0.398000
    219 H128        23.0540    -4.9750   -16.6080 ho         7 MOL       0.398000
@<TRIPOS>BOND
     1     1    10 1   
     2     1    13 1   
     3     1    94 1   
     4     2    11 1   
     5     2    12 1   
     6     2    95 1   
     7     3    14 1   
     8     3    15 1   
     9     3    96 1   
    10     4     5 ar  
    11     4     9 ar  
    12     4    15 1   
    13     5     6 ar  
    14     5    91 1   
    15     6     7 ar  
    16     6    11 1   
    17     7     8 ar  
    18     7    92 1   
    19     8     9 ar  
    20     8    10 1   
    21     9    93 1   
    22    10    73 2   
    23    11    74 2   
    24    12    54 1   
    25    12   177 1   
    26    12   178 1   
    27    13    35 1   
    28    13   137 1   
    29    13   138 1   
    30    14    16 1   
    31    14    97 1   
    32    14    98 1   
    33    15    75 2   
    34    16    17 1   
    35    16    99 1   
    36    16   100 1   
    37    17    18 1   
    38    17   101 1   
    39    17   102 1   
    40    18    19 1   
    41    18   103 1   
    42    18   104 1   
    43    19    20 1   
    44    19   105 1   
    45    19   106 1   
    46    20    21 1   
    47    20   107 1   
    48    20   108 1   
    49    21    22 1   
    50    21   109 1   
    51    21   110 1   
    52    22    23 1   
    53    22   111 1   
    54    22   112 1   
    55    23    24 1   
    56    23   113 1   
    57    23   114 1   
    58    24    25 1   
    59    24   115 1   
    60    24   116 1   
    61    25    26 1   
    62    25   117 1   
    63    25   118 1   
    64    26    76 1   
    65    26   119 1   
    66    26   120 1   
    67    27    28 1   
    68    27    76 1   
    69    27   121 1   
    70    27   122 1   
    71    28    77 1   
    72    28   123 1   
    73    28   124 1   
    74    29    30 1   
    75    29    77 1   
    76    29   125 1   
    77    29   126 1   
    78    30    78 1   
    79    30   127 1   
    80    30   128 1   
    81    31    32 1   
    82    31    78 1   
    83    31   129 1   
    84    31   130 1   
    85    32    79 1   
    86    32   131 1   
    87    32   132 1   
    88    33    34 1   
    89    33    79 1   
    90    33   133 1   
    91    33   134 1   
    92    34    80 1   
    93    34   135 1   
    94    34   136 1   
    95    35    36 1   
    96    35   139 1   
    97    35   140 1   
    98    36    37 1   
    99    36   141 1   
   100    36   142 1   
   101    37    38 1   
   102    37   143 1   
   103    37   144 1   
   104    38    39 1   
   105    38   145 1   
   106    38   146 1   
   107    39    40 1   
   108    39   147 1   
   109    39   148 1   
   110    40    41 1   
   111    40   149 1   
   112    40   150 1   
   113    41    42 1   
   114    41   151 1   
   115    41   152 1   
   116    42    43 1   
   117    42   153 1   
   118    42   154 1   
   119    43    44 1   
   120    43   155 1   
   121    43   156 1   
   122    44    45 1   
   123    44   157 1   
   124    44   158 1   
   125    45    81 1   
   126    45   159 1   
   127    45   160 1   
   128    46    47 1   
   129    46    81 1   
   130    46   161 1   
   131    46   162 1   
   132    47    82 1   
   133    47   163 1   
   134    47   164 1   
   135    48    49 1   
   136    48    82 1   
   137    48   165 1   
   138    48   166 1   
   139    49    83 1   
   140    49   167 1   
   141    49   168 1   
   142    50    51 1   
   143    50    83 1   
   144    50   169 1   
   145    50   170 1   
   146    51    84 1   
   147    51   171 1   
   148    51   172 1   
   149    52    53 1   
   150    52    84 1   
   151    52   173 1   
   152    52   174 1   
   153    53    85 1   
   154    53   175 1   
   155    53   176 1   
   156    54    55 1   
   157    54   179 1   
   158    54   180 1   
   159    55    56 1   
   160    55   181 1   
   161    55   182 1   
   162    56    57 1   
   163    56   183 1   
   164    56   184 1   
   165    57    58 1   
   166    57   185 1   
   167    57   186 1   
   168    58    59 1   
   169    58   187 1   
   170    58   188 1   
   171    59    60 1   
   172    59   189 1   
   173    59   190 1   
   174    60    61 1   
   175    60   191 1   
   176    60   192 1   
   177    61    62 1   
   178    61   193 1   
   179    61   194 1   
   180    62    63 1   
   181    62   195 1   
   182    62   196 1   
   183    63    64 1   
   184    63   197 1   
   185    63   198 1   
   186    64    86 1   
   187    64   199 1   
   188    64   200 1   
   189    65    66 1   
   190    65    86 1   
   191    65   201 1   
   192    65   202 1   
   193    66    87 1   
   194    66   203 1   
   195    66   204 1   
   196    67    68 1   
   197    67    87 1   
   198    67   205 1   
   199    67   206 1   
   200    68    88 1   
   201    68   207 1   
   202    68   208 1   
   203    69    70 1   
   204    69    88 1   
   205    69   209 1   
   206    69   210 1   
   207    70    89 1   
   208    70   211 1   
   209    70   212 1   
   210    71    72 1   
   211    71    89 1   
   212    71   213 1   
   213    71   214 1   
   214    72    90 1   
   215    72   215 1   
   216    72   216 1   
   217    80   219 1   
   218    85   218 1   
   219    90   217 1   
@<TRIPOS>SUBSTRUCTURE
     1 MOL         1 TEMP              0 ****  ****    0 ROOT
