@<TRIPOS>MOLECULE
MOL
  378   381     1     0     0
SMALL
bcc


@<TRIPOS>ATOM
      1 N           -5.8520    14.8140   -17.8190 n          8 MOL      -0.559233
      2 N1          -4.1250     8.5690   -17.9890 n          8 MOL      -0.559233
      3 N2           0.3520    12.9570   -17.5880 n          8 MOL      -0.559233
      4 C           -2.0540    12.8700   -17.4210 ca         8 MOL      -0.156267
      5 C1          -2.1080    11.4820   -17.2250 ca         8 MOL      -0.037667
      6 C2          -3.2940    10.7640   -17.4120 ca         8 MOL      -0.156267
      7 C3          -4.4560    11.4620   -17.7670 ca         8 MOL      -0.037667
      8 C4          -4.4440    12.8540   -17.9280 ca         8 MOL      -0.156267
      9 C5          -3.2330    13.5450   -17.7600 ca         8 MOL      -0.037667
     10 C6          -5.7160    13.5730   -18.3000 c          8 MOL       0.670033
     11 C7          -3.3090     9.2720   -17.1960 c          8 MOL       0.670033
     12 C8          -4.3360     7.1580   -17.8360 c3         8 MOL       0.084667
     13 C9          -7.0080    15.5660   -18.1200 c3         8 MOL       0.084667
     14 C10          1.6220    13.6070   -17.4910 c3         8 MOL       0.084667
     15 C11         -0.7600    13.6310   -17.2680 c          8 MOL       0.670033
     16 C12         -6.7200    17.0530   -17.9950 c3         8 MOL      -0.105067
     17 C13         -8.0060    17.7860   -18.3190 c3         8 MOL      -0.077067
     18 C14         -7.7870    19.2850   -18.2190 c3         8 MOL      -0.078733
     19 C15         -9.1100    19.9510   -18.5480 c3         8 MOL      -0.079400
     20 C16         -8.9750    21.4610   -18.4770 c3         8 MOL      -0.078733
     21 C17        -10.3390    22.0340   -18.8090 c3         8 MOL      -0.079400
     22 C18        -10.3070    23.5510   -18.7690 c3         8 MOL      -0.079400
     23 C19        -11.7160    24.0170   -19.1020 c3         8 MOL      -0.078400
     24 C20        -11.8090    25.5340   -19.0950 c3         8 MOL      -0.078400
     25 C21        -13.2550    25.8730   -19.4230 c3         8 MOL      -0.084400
     26 C22        -13.4760    27.3750   -19.4480 c3         8 MOL       0.133400
     27 C23        -15.1780    28.8870   -19.8100 c3         8 MOL       0.128400
     28 C24        -16.6110    28.9150   -20.0800 c3         8 MOL       0.130400
     29 C25        -18.2080    30.3620   -20.3410 c3         8 MOL       0.130067
     30 C26        -18.3980    31.7560   -20.4050 c3         8 MOL       0.129400
     31 C27        -20.1680    33.0310   -20.7110 c3         8 MOL       0.130400
     32 C28        -21.5650    32.7850   -20.8440 c3         8 MOL       0.128400
     33 C29        -23.4060    34.0020   -21.0790 c3         8 MOL       0.105733
     34 C30        -23.6740    35.4360   -21.2670 c3         8 MOL       0.084333
     35 C31         -3.0960     6.3060   -18.1330 c3         8 MOL      -0.105067
     36 C32         -3.5620     4.8700   -17.9200 c3         8 MOL      -0.077067
     37 C33         -2.4630     3.8470   -18.1730 c3         8 MOL      -0.078733
     38 C34         -3.1250     2.4880   -17.9410 c3         8 MOL      -0.079400
     39 C35         -2.1690     1.3190   -18.1590 c3         8 MOL      -0.078733
     40 C36         -3.0010     0.0600   -17.9110 c3         8 MOL      -0.079400
     41 C37         -2.1860    -1.2160   -18.0980 c3         8 MOL      -0.079400
     42 C38         -3.1540    -2.3790   -17.8430 c3         8 MOL      -0.078400
     43 C39         -2.4750    -3.7400   -18.0050 c3         8 MOL      -0.078400
     44 C40         -3.5540    -4.8010   -17.7480 c3         8 MOL      -0.084400
     45 C41         -2.9940    -6.2250   -17.8930 c3         8 MOL       0.133400
     46 C42         -3.6310    -8.4780   -17.7930 c3         8 MOL       0.128400
     47 C43         -4.8570    -9.3900   -17.5850 c3         8 MOL       0.130400
     48 C44         -5.6940   -11.5290   -17.5630 c3         8 MOL       0.130067
     49 C45         -5.3890   -13.0370   -17.7150 c3         8 MOL       0.129400
     50 C46         -6.2870   -15.1580   -17.7400 c3         8 MOL       0.130400
     51 C47         -7.5830   -16.0010   -17.6510 c3         8 MOL       0.128400
     52 C48         -8.4900   -18.1590   -17.7810 c3         8 MOL       0.105733
     53 C49         -8.2220   -19.7020   -17.9750 c3         8 MOL       0.084333
     54 C50          2.7790    12.6110   -17.3730 c3         8 MOL      -0.105067
     55 C51          4.0710    13.4320   -17.2730 c3         8 MOL      -0.077067
     56 C52          5.2910    12.5160   -17.1300 c3         8 MOL      -0.078733
     57 C53          6.5370    13.4080   -17.0200 c3         8 MOL      -0.079400
     58 C54          7.8000    12.5560   -16.8460 c3         8 MOL      -0.078733
     59 C55          9.0000    13.5060   -16.7260 c3         8 MOL      -0.079400
     60 C56         10.2930    12.7090   -16.5170 c3         8 MOL      -0.079400
     61 C57         11.4600    13.7040   -16.3870 c3         8 MOL      -0.078400
     62 C58         12.7780    12.9560   -16.1380 c3         8 MOL      -0.078400
     63 C59         13.9080    13.9910   -16.0020 c3         8 MOL      -0.084400
     64 C60         15.2440    13.2840   -15.7130 c3         8 MOL       0.133400
     65 C61         17.4780    13.6630   -15.2400 c3         8 MOL       0.128400
     66 C62         18.5110    14.7160   -15.1280 c3         8 MOL       0.130400
     67 C63         20.6750    14.8590   -14.6460 c3         8 MOL       0.130067
     68 C64         21.7320    14.0000   -14.2080 c3         8 MOL       0.129400
     69 C65         23.8930    14.1850   -13.6920 c3         8 MOL       0.130400
     70 C66         24.9160    15.2350   -13.7640 c3         8 MOL       0.128400
     71 C67         27.1490    15.6500   -13.5340 c3         8 MOL       0.105733
     72 C68         28.4910    15.0440   -13.1150 c3         8 MOL       0.084333
     73 O           -6.5710    13.0310   -19.0020 o          8 MOL      -0.607433
     74 O1          -2.5990     8.7510   -16.3340 o          8 MOL      -0.607433
     75 O2          -0.7470    14.8080   -16.9050 o          8 MOL      -0.607433
     76 O3         -14.8530    27.5650   -19.7460 os         8 MOL      -0.428267
     77 O4         -16.9190    30.2350   -20.1420 os         8 MOL      -0.430600
     78 O5         -19.7050    31.7960   -20.5850 os         8 MOL      -0.430600
     79 O6         -22.0460    33.9940   -20.9820 os         8 MOL      -0.425600
     80 O8          -4.0670    -7.1350   -17.6610 os         8 MOL      -0.428267
     81 O9          -4.5010   -10.7630   -17.7180 os         8 MOL      -0.430600
     82 O10         -6.5950   -13.7800   -17.5810 os         8 MOL      -0.430600
     83 O11         -7.2660   -17.3790   -17.8230 os         8 MOL      -0.425600
     84 O13         16.2780    14.2720   -15.5810 os         8 MOL      -0.428267
     85 O14         19.6470    14.0310   -14.7600 os         8 MOL      -0.430600
     86 O15         22.7640    14.8320   -14.1200 os         8 MOL      -0.430600
     87 O16         26.1300    14.6900   -13.3650 os         8 MOL      -0.425600
     88 H253        -1.2180    10.9520   -16.9140 ha         8 MOL       0.162000
     89 H254        -5.3870    10.9240   -17.8990 ha         8 MOL       0.162000
     90 H255        -3.1970    14.6170   -17.9150 ha         8 MOL       0.162000
     91 H250        -5.1530    15.1320   -17.1640 hn         8 MOL       0.311833
     92 H251        -4.5500     9.0590   -18.7700 hn         8 MOL       0.311833
     93 H252         0.2190    12.0540   -18.0140 hn         8 MOL       0.311833
     94 H6          -7.8020    15.2940   -17.4120 h1         8 MOL       0.064033
     95 H7          -7.3460    15.3190   -19.1370 h1         8 MOL       0.064033
     96 H8          -5.9330    17.3440   -18.7050 hc         8 MOL       0.046033
     97 H9          -6.4030    17.2910   -16.9700 hc         8 MOL       0.046033
     98 H10         -8.7850    17.4800   -17.6080 hc         8 MOL       0.043367
     99 H11         -8.3220    17.5320   -19.3410 hc         8 MOL       0.043367
    100 H12         -7.0170    19.6000   -18.9380 hc         8 MOL       0.041033
    101 H13         -7.4750    19.5520   -17.2000 hc         8 MOL       0.041033
    102 H14         -9.8710    19.6200   -17.8270 hc         8 MOL       0.040700
    103 H15         -9.4200    19.6630   -19.5630 hc         8 MOL       0.040700
    104 H16         -8.2300    21.8080   -19.2070 hc         8 MOL       0.040033
    105 H17         -8.6750    21.7670   -17.4640 hc         8 MOL       0.040033
    106 H18        -11.0720    21.6680   -18.0760 hc         8 MOL       0.040367
    107 H19        -10.6360    21.7060   -19.8160 hc         8 MOL       0.040367
    108 H20         -9.5920    23.9320   -19.5120 hc         8 MOL       0.039700
    109 H21        -10.0210    23.8960   -17.7650 hc         8 MOL       0.039700
    110 H22        -12.4130    23.6110   -18.3540 hc         8 MOL       0.041700
    111 H23        -11.9950    23.6450   -20.0980 hc         8 MOL       0.041700
    112 H24        -11.1360    25.9590   -19.8530 hc         8 MOL       0.040367
    113 H25        -11.5470    25.9260   -18.1020 hc         8 MOL       0.040367
    114 H26        -13.9090    25.4270   -18.6590 hc         8 MOL       0.055033
    115 H27        -13.5100    25.4560   -20.4080 hc         8 MOL       0.055033
    116 H28        -12.8480    27.8370   -20.2250 h1         8 MOL       0.027700
    117 H29        -13.2370    27.8100   -18.4660 h1         8 MOL       0.027700
    118 H30        -14.6310    29.3870   -20.6210 h1         8 MOL       0.039700
    119 H31        -14.9740    29.3870   -18.8530 h1         8 MOL       0.039700
    120 H32        -17.1600    28.4240   -19.2610 h1         8 MOL       0.042200
    121 H33        -16.8340    28.4160   -21.0370 h1         8 MOL       0.042200
    122 H34        -18.7820    29.9390   -19.5030 h1         8 MOL       0.042200
    123 H35        -18.5170    29.8950   -21.2870 h1         8 MOL       0.042200
    124 H36        -17.8480    32.1860   -21.2540 h1         8 MOL       0.042533
    125 H37        -18.0990    32.2380   -19.4620 h1         8 MOL       0.042533
    126 H38        -19.7710    33.5260   -21.6090 h1         8 MOL       0.042867
    127 H39        -19.9700    33.6380   -19.8140 h1         8 MOL       0.042867
    128 H40        -21.9510    32.2960   -19.9380 h1         8 MOL       0.042367
    129 H41        -21.7660    32.1660   -21.7300 h1         8 MOL       0.042367
    130 H42        -23.8710    33.6250   -20.1540 h1         8 MOL       0.033533
    131 H43        -23.7500    33.4220   -21.9500 h1         8 MOL       0.033533
    132 H46         -5.1440     6.8480   -18.5130 h1         8 MOL       0.064033
    133 H47         -4.6260     6.9610   -16.7940 h1         8 MOL       0.064033
    134 H48         -2.2770     6.5550   -17.4410 hc         8 MOL       0.046033
    135 H49         -2.7670     6.4490   -19.1730 hc         8 MOL       0.046033
    136 H50         -4.3940     4.6680   -18.6100 hc         8 MOL       0.043367
    137 H51         -3.9160     4.7600   -16.8850 hc         8 MOL       0.043367
    138 H52         -1.6280     3.9980   -17.4750 hc         8 MOL       0.041033
    139 H53         -2.1040     3.9240   -19.2080 hc         8 MOL       0.041033
    140 H54         -3.9670     2.3860   -18.6400 hc         8 MOL       0.040700
    141 H55         -3.5040     2.4470   -16.9100 hc         8 MOL       0.040700
    142 H56         -1.3280     1.3720   -17.4520 hc         8 MOL       0.040033
    143 H57         -1.7900     1.3240   -19.1910 hc         8 MOL       0.040033
    144 H58         -3.8410     0.0500   -18.6190 hc         8 MOL       0.040367
    145 H59         -3.3930     0.0860   -16.8840 hc         8 MOL       0.040367
    146 H60         -1.3510    -1.2430   -17.3820 hc         8 MOL       0.039700
    147 H61         -1.7970    -1.2670   -19.1260 hc         8 MOL       0.039700
    148 H62         -3.9840    -2.3100   -18.5610 hc         8 MOL       0.041700
    149 H63         -3.5530    -2.2970   -16.8210 hc         8 MOL       0.041700
    150 H64         -1.6550    -3.8440   -17.2800 hc         8 MOL       0.040367
    151 H65         -2.0830    -3.8450   -19.0270 hc         8 MOL       0.040367
    152 H66         -4.3660    -4.6610   -18.4770 hc         8 MOL       0.055033
    153 H67         -3.9520    -4.6710   -16.7310 hc         8 MOL       0.055033
    154 H68         -2.1910    -6.3910   -17.1590 h1         8 MOL       0.027700
    155 H69         -2.6010    -6.3680   -18.9110 h1         8 MOL       0.027700
    156 H70         -2.8570    -8.6970   -17.0400 h1         8 MOL       0.039700
    157 H71         -3.2200    -8.6340   -18.8030 h1         8 MOL       0.039700
    158 H72         -5.6170    -9.1450   -18.3420 h1         8 MOL       0.042200
    159 H73         -5.2770    -9.2190   -16.5820 h1         8 MOL       0.042200
    160 H74         -6.4150   -11.2240   -18.3370 h1         8 MOL       0.042200
    161 H75         -6.1250   -11.3360   -16.5680 h1         8 MOL       0.042200
    162 H76         -4.6730   -13.3540   -16.9400 h1         8 MOL       0.042533
    163 H77         -4.9580   -13.2260   -18.7110 h1         8 MOL       0.042533
    164 H78         -5.5830   -15.4670   -16.9520 h1         8 MOL       0.042867
    165 H79         -5.8210   -15.3100   -18.7270 h1         8 MOL       0.042867
    166 H80         -8.2770   -15.6870   -18.4460 h1         8 MOL       0.042367
    167 H81         -8.0590   -15.8530   -16.6690 h1         8 MOL       0.042367
    168 H82         -9.1540   -17.8080   -18.5860 h1         8 MOL       0.033533
    169 H83         -8.9810   -17.9970   -16.8100 h1         8 MOL       0.033533
    170 H86          1.6070    14.2780   -16.6190 h1         8 MOL       0.064033
    171 H87          1.7700    14.2180   -18.3920 h1         8 MOL       0.064033
    172 H88          2.8140    11.9600   -18.2590 hc         8 MOL       0.046033
    173 H89          2.6550    11.9990   -16.4680 hc         8 MOL       0.046033
    174 H90          4.0100    14.0860   -16.3920 hc         8 MOL       0.043367
    175 H91          4.1800    14.0470   -18.1770 hc         8 MOL       0.043367
    176 H92          5.3730    11.8590   -18.0070 hc         8 MOL       0.041033
    177 H93          5.1890    11.9080   -16.2200 hc         8 MOL       0.041033
    178 H94          6.4300    14.0680   -16.1480 hc         8 MOL       0.040700
    179 H95          6.6310    14.0190   -17.9300 hc         8 MOL       0.040700
    180 H96          7.9310    11.8930   -17.7130 hc         8 MOL       0.040033
    181 H97          7.7130    11.9550   -15.9300 hc         8 MOL       0.040033
    182 H98          8.8470    14.1710   -15.8640 hc         8 MOL       0.040367
    183 H99          9.0830    14.1090   -17.6420 hc         8 MOL       0.040367
    184 H100        10.4630    12.0380   -17.3720 hc         8 MOL       0.039700
    185 H101        10.2080    12.1150   -15.5940 hc         8 MOL       0.039700
    186 H102        11.2670    14.3750   -15.5380 hc         8 MOL       0.041700
    187 H103        11.5410    14.2960   -17.3090 hc         8 MOL       0.041700
    188 H104        12.9910    12.2790   -16.9780 hc         8 MOL       0.040367
    189 H105        12.6970    12.3750   -15.2080 hc         8 MOL       0.040367
    190 H106        13.6740    14.6710   -15.1690 hc         8 MOL       0.055033
    191 H107        13.9870    14.5690   -16.9340 hc         8 MOL       0.055033
    192 H108        15.4910    12.5950   -16.5340 h1         8 MOL       0.027700
    193 H109        15.1550    12.7190   -14.7730 h1         8 MOL       0.027700
    194 H110        17.7760    12.9410   -16.0130 h1         8 MOL       0.039700
    195 H111        17.3760    13.1500   -14.2740 h1         8 MOL       0.039700
    196 H112        18.2340    15.4480   -14.3530 h1         8 MOL       0.042200
    197 H113        18.6500    15.2230   -16.0960 h1         8 MOL       0.042200
    198 H114        20.4820    15.6370   -13.8950 h1         8 MOL       0.042200
    199 H115        20.9230    15.3160   -15.6150 h1         8 MOL       0.042200
    200 H116        21.9220    13.2120   -14.9520 h1         8 MOL       0.042533
    201 H117        21.4880    13.5550   -13.2330 h1         8 MOL       0.042533
    202 H118        24.1490    13.3570   -14.3730 h1         8 MOL       0.042867
    203 H119        23.7710    13.8110   -12.6640 h1         8 MOL       0.042867
    204 H120        24.6400    16.0750   -13.1110 h1         8 MOL       0.042367
    205 H121        24.9820    15.5830   -14.8050 h1         8 MOL       0.042367
    206 H122        26.9310    16.5410   -12.9250 h1         8 MOL       0.033533
    207 H123        27.1960    15.9340   -14.5970 h1         8 MOL       0.033533
    208 N3          -9.4850   -20.4310   -17.9440 n          8 MOL      -0.571900
    209 H124        -7.5640   -20.0860   -17.1790 h1         8 MOL       0.076367
    210 H125        -7.7300   -19.8860   -18.9440 h1         8 MOL       0.076367
    211 C69         -9.5380   -21.7740   -18.0680 c          8 MOL       0.657100
    212 H126       -10.3330   -19.9260   -17.8340 hn         8 MOL       0.307167
    213 O17         -8.5110   -22.4530   -18.2090 o          8 MOL      -0.601433
    214 C70        -10.8800   -22.4850   -18.0430 c3         8 MOL      -0.160067
    215 C71        -10.6800   -24.0180   -18.0790 c3         8 MOL       0.141067
    216 H127       -11.4380   -22.1730   -17.1470 hc         8 MOL       0.079033
    217 H128       -11.4680   -22.1550   -18.9150 hc         8 MOL       0.079033
    218 O18        -11.9580   -24.6910   -18.0750 os         8 MOL      -0.434600
    219 H129       -10.0960   -24.3260   -17.2000 h1         8 MOL       0.044867
    220 H130       -10.1290   -24.2860   -18.9930 h1         8 MOL       0.044867
    221 C72        -11.7520   -26.0680   -18.1120 c3         8 MOL       0.129733
    222 C73        -13.0740   -26.7320   -18.1330 c3         8 MOL       0.129733
    223 H131       -11.1920   -26.3920   -17.2230 h1         8 MOL       0.043700
    224 H132       -11.1950   -26.3420   -19.0190 h1         8 MOL       0.043700
    225 O19        -12.7900   -28.0820   -18.1730 os         8 MOL      -0.429267
    226 H133       -13.6470   -26.4820   -17.2260 h1         8 MOL       0.042200
    227 H134       -13.6380   -26.4290   -19.0300 h1         8 MOL       0.042200
    228 C74        -13.9210   -28.7750   -18.2200 c3         8 MOL       0.130067
    229 C75        -13.5090   -30.1430   -18.2580 c3         8 MOL       0.128733
    230 H135       -14.5340   -28.5930   -17.3260 h1         8 MOL       0.042533
    231 H136       -14.4930   -28.5310   -19.1260 h1         8 MOL       0.042533
    232 O20        -14.6890   -30.7560   -18.3120 os         8 MOL      -0.429933
    233 H137       -12.9050   -30.3450   -19.1560 h1         8 MOL       0.043200
    234 H138       -12.9510   -30.4110   -17.3480 h1         8 MOL       0.043200
    235 C76        -14.5760   -32.0880   -18.3540 c3         8 MOL       0.129400
    236 C77        -15.9480   -32.5040   -18.4220 c3         8 MOL       0.128400
    237 H139       -14.0310   -32.4230   -19.2500 h1         8 MOL       0.045033
    238 H140       -14.0980   -32.4840   -17.4460 h1         8 MOL       0.045033
    239 O21        -15.8060   -33.7710   -18.4610 os         8 MOL      -0.426267
    240 H141       -16.4950   -32.1900   -17.5310 h1         8 MOL       0.045867
    241 H142       -16.4250   -32.1270   -19.3300 h1         8 MOL       0.045867
    242 C78        -16.9460   -34.4930   -18.5330 c3         8 MOL       0.116067
    243 C79        -16.2890   -35.8050   -18.5360 c3         8 MOL       0.185133
    244 H143       -17.5910   -34.3410   -17.6430 h1         8 MOL       0.042200
    245 H144       -17.5100   -34.2900   -19.4680 h1         8 MOL       0.042200
    246 N4         -17.1520   -36.8610   -18.6010 nh         8 MOL      -0.734933
    247 H145       -15.6020   -35.8520   -19.3950 h1         8 MOL       0.073367
    248 H146       -15.6840   -35.8960   -17.6210 h1         8 MOL       0.073367
    249 H147       -18.1130   -36.6370   -18.6710 hn         8 MOL       0.436133
    250 N5          29.4880    16.0060   -13.3480 n          8 MOL      -0.571900
    251 H148        28.7140    14.1400   -13.7010 h1         8 MOL       0.076367
    252 H149        28.4690    14.7850   -12.0460 h1         8 MOL       0.076367
    253 C80         30.7480    15.6000   -13.7550 c          8 MOL       0.657100
    254 H150        29.2720    16.9730   -13.2910 hn         8 MOL       0.307167
    255 O22         30.8420    14.3670   -13.7470 o          8 MOL      -0.601433
    256 C81         31.7980    16.2600   -12.9190 c3         8 MOL      -0.160067
    257 C82         33.0480    15.3600   -12.8440 c3         8 MOL       0.141067
    258 H151        31.4000    16.4540   -11.9100 hc         8 MOL       0.079033
    259 H152        32.0650    17.2230   -13.3840 hc         8 MOL       0.079033
    260 O23         34.0760    16.0220   -12.1060 os         8 MOL      -0.434600
    261 H153        33.4090    15.1710   -13.8650 h1         8 MOL       0.044867
    262 H154        32.7900    14.4030   -12.3660 h1         8 MOL       0.044867
    263 C83         35.2430    15.1870   -12.0990 c3         8 MOL       0.129733
    264 C84         36.4430    15.9420   -11.4730 c3         8 MOL       0.129733
    265 H155        35.5000    14.9300   -13.1380 h1         8 MOL       0.043700
    266 H156        35.0380    14.2640   -11.5330 h1         8 MOL       0.043700
    267 O24         37.5950    15.1010   -11.5130 os         8 MOL      -0.429267
    268 H157        36.6430    16.8510   -12.0640 h1         8 MOL       0.042200
    269 H158        36.2220    16.2230   -10.4320 h1         8 MOL       0.042200
    270 C85         38.7230    15.8250   -11.0310 c3         8 MOL       0.130067
    271 C86         39.9810    14.9200   -11.1110 c3         8 MOL       0.128733
    272 H159        38.8750    16.7150   -11.6640 h1         8 MOL       0.042533
    273 H160        38.5470    16.1410    -9.9910 h1         8 MOL       0.042533
    274 O25         41.1400    15.6310   -10.6700 os         8 MOL      -0.429933
    275 H161        40.1320    14.6120   -12.1580 h1         8 MOL       0.043200
    276 H162        39.8400    14.0250   -10.4850 h1         8 MOL       0.043200
    277 C87         42.2810    14.7730   -10.8480 c3         8 MOL       0.129400
    278 C88         43.5820    15.4720   -10.4970 c3         8 MOL       0.128400
    279 H163        42.1590    13.8730   -10.2240 h1         8 MOL       0.045033
    280 H164        42.3330    14.4800   -11.9060 h1         8 MOL       0.045033
    281 O26         44.6780    14.5640   -10.7510 os         8 MOL      -0.426267
    282 H165        43.6870    16.3520   -11.1510 h1         8 MOL       0.045867
    283 H166        43.5950    15.7920    -9.4440 h1         8 MOL       0.045867
    284 C89         45.8700    15.3060   -10.6020 c3         8 MOL       0.116067
    285 C90         47.1560    14.4720   -10.9660 c3         8 MOL       0.185133
    286 H167        45.9450    15.6870    -9.5690 h1         8 MOL       0.042200
    287 H168        45.8070    16.1560   -11.2920 h1         8 MOL       0.042200
    288 N6          48.5320    15.1970   -10.9450 nh         8 MOL      -0.734933
    289 H169        47.0090    14.0980   -11.9890 h1         8 MOL       0.073367
    290 H170        47.2130    13.6130   -10.2800 h1         8 MOL       0.073367
    291 H171        49.2850    14.6210   -10.5730 hn         8 MOL       0.436133
    292 N7         -25.0590    35.6550   -21.3770 n          8 MOL      -0.571900
    293 H172       -23.1750    35.7620   -22.1900 h1         8 MOL       0.076367
    294 H173       -23.2760    36.0060   -20.4180 h1         8 MOL       0.076367
    295 C91        -25.4530    36.7900   -21.9030 c          8 MOL       0.657100
    296 H174       -25.7350    35.0710   -20.8640 hn         8 MOL       0.307167
    297 O27        -24.6140    37.5480   -22.3990 o          8 MOL      -0.601433
    298 C92        -26.8770    37.1760   -21.8650 c3         8 MOL      -0.160067
    299 C93        -26.9130    38.6720   -21.7690 c3         8 MOL       0.141067
    300 H175       -27.3840    36.6850   -21.0210 hc         8 MOL       0.079033
    301 H176       -27.3720    36.8770   -22.8040 hc         8 MOL       0.079033
    302 O28        -28.2520    39.1180   -21.7180 os         8 MOL      -0.434600
    303 H177       -26.3840    38.9910   -20.8600 h1         8 MOL       0.044867
    304 H178       -26.4080    39.0930   -22.6520 h1         8 MOL       0.044867
    305 C94        -28.1920    40.4560   -21.6840 c3         8 MOL       0.129733
    306 C95        -29.5550    40.9870   -21.5890 c3         8 MOL       0.129733
    307 H179       -27.7210    40.8270   -22.6060 h1         8 MOL       0.043700
    308 H180       -27.6080    40.7870   -20.8150 h1         8 MOL       0.043700
    309 O29        -29.3070    42.3140   -21.6150 os         8 MOL      -0.429267
    310 H181       -30.1540    40.6780   -22.4610 h1         8 MOL       0.042200
    311 H182       -30.0450    40.6770   -20.6530 h1         8 MOL       0.042200
    312 C96        -30.4080    43.0280   -21.5770 c3         8 MOL       0.130067
    313 C97        -29.8900    44.3340   -21.7670 c3         8 MOL       0.128733
    314 H183       -31.0760    42.7730   -22.4140 h1         8 MOL       0.042533
    315 H184       -30.9360    42.9330   -20.6190 h1         8 MOL       0.042533
    316 O30        -30.9890    45.0480   -21.7880 os         8 MOL      -0.429933
    317 H185       -29.2120    44.6310   -20.9560 h1         8 MOL       0.043200
    318 H186       -29.3720    44.3760   -22.7370 h1         8 MOL       0.043200
    319 C98        -30.7470    46.3210   -22.1670 c3         8 MOL       0.129400
    320 C99        -32.1090    46.8620   -22.2400 c3         8 MOL       0.128400
    321 H187       -30.2800    46.3390   -23.1650 h1         8 MOL       0.045033
    322 H188       -30.1220    46.8670   -21.4410 h1         8 MOL       0.045033
    323 O31        -32.0300    48.1450   -22.7350 os         8 MOL      -0.426267
    324 H189       -32.6960    46.2420   -22.9340 h1         8 MOL       0.045867
    325 H190       -32.5740    46.8450   -21.2460 h1         8 MOL       0.045867
    326 C100       -33.3350    48.7220   -22.8540 c3         8 MOL       0.116067
    327 C101       -33.1650    50.1040   -23.6430 c3         8 MOL       0.185133
    328 H186       -33.9740    48.0440   -23.4340 h1         8 MOL       0.042200
    329 H188       -33.7670    48.8690   -21.8460 h1         8 MOL       0.042200
    330 N8         -34.4100    50.8990   -23.9250 nh         8 MOL      -0.734933
    331 H189       -32.4910    50.7380   -23.0430 h1         8 MOL       0.073367
    332 H190       -32.6870    49.8690   -24.6020 h1         8 MOL       0.073367
    333 H191       -34.6180    51.6790   -23.2860 hn         8 MOL       0.436133
    334 C102        48.9180    16.2810   -11.8500 ca         8 MOL       0.260933
    335 C103        50.0890    16.0390   -12.6470 ca         8 MOL      -0.217000
    336 H192        50.6200    15.1450   -12.5590 ha         8 MOL       0.159333
    337 C104        50.4860    16.9590   -13.4940 ca         8 MOL      -0.004667
    338 H193        51.3390    16.8090   -14.0900 ha         8 MOL       0.179667
    339 C105        49.7460    18.1640   -13.6130 ca         8 MOL      -0.231533
    340 C106        48.6900    18.4110   -12.9140 ca         8 MOL       0.018000
    341 H194        48.1710    19.3390   -13.0260 ha         8 MOL       0.200333
    342 C107        48.2860    17.4690   -12.0030 ca         8 MOL      -0.238867
    343 N9          50.1390    18.9890   -14.3970 no         8 MOL       0.324200
    344 O32         49.4960    20.1090   -14.6850 o          8 MOL      -0.203167
    345 O33         51.1350    18.7470   -14.9300 o          8 MOL      -0.203167
    346 N10         47.3070    17.8290   -11.2640 no         8 MOL       0.324867
    347 O34         46.2490    18.4360   -11.7430 o          8 MOL      -0.201500
    348 O35         47.3280    17.5160   -10.1450 o          8 MOL      -0.201500
    349 C108       -35.1390    50.8270   -25.1670 ca         8 MOL       0.260933
    350 C109       -34.9810    49.6610   -26.0040 ca         8 MOL      -0.217000
    351 H195       -34.3620    48.8800   -25.7290 ha         8 MOL       0.159333
    352 C110       -35.6470    49.5970   -27.1280 ca         8 MOL      -0.004667
    353 H196       -35.5620    48.7540   -27.7680 ha         8 MOL       0.179667
    354 C111       -36.4910    50.6730   -27.4880 ca         8 MOL      -0.231533
    355 C112       -36.6450    51.7350   -26.7670 ca         8 MOL       0.018000
    356 H197       -37.2880    52.5150   -27.0830 ha         8 MOL       0.200333
    357 C113       -35.9690    51.8240   -25.5940 ca         8 MOL      -0.238867
    358 N11        -37.0890    50.5780   -28.5220 no         8 MOL       0.324200
    359 O36        -37.9010    51.5070   -28.9750 o          8 MOL      -0.203167
    360 O37        -36.9290    49.6010   -29.1290 o          8 MOL      -0.203167
    361 N12        -36.1650    52.9440   -24.9240 no         8 MOL       0.324867
    362 O38        -36.9010    53.9150   -25.3580 o          8 MOL      -0.201500
    363 O39        -35.6210    53.0420   -23.9090 o          8 MOL      -0.201500
    364 C114       -16.7900   -38.2560   -18.5730 ca         8 MOL       0.260933
    365 C115       -17.9660   -39.0720   -18.6550 ca         8 MOL      -0.217000
    366 H198       -18.8970   -38.6210   -18.7220 ha         8 MOL       0.159333
    367 C116       -17.8750   -40.3770   -18.6460 ca         8 MOL      -0.004667
    368 H199       -18.7450   -40.9900   -18.7060 ha         8 MOL       0.179667
    369 C117       -16.6110   -40.9610   -18.5550 ca         8 MOL      -0.231533
    370 C118       -15.5170   -40.2750   -18.4790 ca         8 MOL       0.018000
    371 H200       -14.5800   -40.7810   -18.4110 ha         8 MOL       0.200333
    372 C119       -15.5640   -38.8870   -18.4860 ca         8 MOL      -0.238867
    373 N13        -16.5430   -42.1800   -18.5470 no         8 MOL       0.324200
    374 O40        -15.4040   -42.8170   -18.4630 o          8 MOL      -0.203167
    375 O41        -17.5440   -42.7750   -18.6170 o          8 MOL      -0.203167
    376 N14        -14.2840   -38.3770   -18.3980 no         8 MOL       0.324867
    377 O42        -14.0320   -37.1460   -18.3880 o          8 MOL      -0.201500
    378 O43        -13.3700   -39.0990   -18.3290 o          8 MOL      -0.201500
@<TRIPOS>BOND
     1     1    10 1   
     2     1    13 1   
     3     1    91 1   
     4     2    11 1   
     5     2    12 1   
     6     2    92 1   
     7     3    14 1   
     8     3    15 1   
     9     3    93 1   
    10     4     5 ar  
    11     4     9 ar  
    12     4    15 1   
    13     5     6 ar  
    14     5    88 1   
    15     6     7 ar  
    16     6    11 1   
    17     7     8 ar  
    18     7    89 1   
    19     8     9 ar  
    20     8    10 1   
    21     9    90 1   
    22    10    73 2   
    23    11    74 2   
    24    12    35 1   
    25    12   132 1   
    26    12   133 1   
    27    13    16 1   
    28    13    94 1   
    29    13    95 1   
    30    14    54 1   
    31    14   170 1   
    32    14   171 1   
    33    15    75 2   
    34    16    17 1   
    35    16    96 1   
    36    16    97 1   
    37    17    18 1   
    38    17    98 1   
    39    17    99 1   
    40    18    19 1   
    41    18   100 1   
    42    18   101 1   
    43    19    20 1   
    44    19   102 1   
    45    19   103 1   
    46    20    21 1   
    47    20   104 1   
    48    20   105 1   
    49    21    22 1   
    50    21   106 1   
    51    21   107 1   
    52    22    23 1   
    53    22   108 1   
    54    22   109 1   
    55    23    24 1   
    56    23   110 1   
    57    23   111 1   
    58    24    25 1   
    59    24   112 1   
    60    24   113 1   
    61    25    26 1   
    62    25   114 1   
    63    25   115 1   
    64    26    76 1   
    65    26   116 1   
    66    26   117 1   
    67    27    28 1   
    68    27    76 1   
    69    27   118 1   
    70    27   119 1   
    71    28    77 1   
    72    28   120 1   
    73    28   121 1   
    74    29    30 1   
    75    29    77 1   
    76    29   122 1   
    77    29   123 1   
    78    30    78 1   
    79    30   124 1   
    80    30   125 1   
    81    31    32 1   
    82    31    78 1   
    83    31   126 1   
    84    31   127 1   
    85    32    79 1   
    86    32   128 1   
    87    32   129 1   
    88    33    34 1   
    89    33    79 1   
    90    33   130 1   
    91    33   131 1   
    92    34   292 1   
    93    34   293 1   
    94    34   294 1   
    95    35    36 1   
    96    35   134 1   
    97    35   135 1   
    98    36    37 1   
    99    36   136 1   
   100    36   137 1   
   101    37    38 1   
   102    37   138 1   
   103    37   139 1   
   104    38    39 1   
   105    38   140 1   
   106    38   141 1   
   107    39    40 1   
   108    39   142 1   
   109    39   143 1   
   110    40    41 1   
   111    40   144 1   
   112    40   145 1   
   113    41    42 1   
   114    41   146 1   
   115    41   147 1   
   116    42    43 1   
   117    42   148 1   
   118    42   149 1   
   119    43    44 1   
   120    43   150 1   
   121    43   151 1   
   122    44    45 1   
   123    44   152 1   
   124    44   153 1   
   125    45    80 1   
   126    45   154 1   
   127    45   155 1   
   128    46    47 1   
   129    46    80 1   
   130    46   156 1   
   131    46   157 1   
   132    47    81 1   
   133    47   158 1   
   134    47   159 1   
   135    48    49 1   
   136    48    81 1   
   137    48   160 1   
   138    48   161 1   
   139    49    82 1   
   140    49   162 1   
   141    49   163 1   
   142    50    51 1   
   143    50    82 1   
   144    50   164 1   
   145    50   165 1   
   146    51    83 1   
   147    51   166 1   
   148    51   167 1   
   149    52    53 1   
   150    52    83 1   
   151    52   168 1   
   152    52   169 1   
   153    53   208 1   
   154    53   209 1   
   155    53   210 1   
   156    54    55 1   
   157    54   172 1   
   158    54   173 1   
   159    55    56 1   
   160    55   174 1   
   161    55   175 1   
   162    56    57 1   
   163    56   176 1   
   164    56   177 1   
   165    57    58 1   
   166    57   178 1   
   167    57   179 1   
   168    58    59 1   
   169    58   180 1   
   170    58   181 1   
   171    59    60 1   
   172    59   182 1   
   173    59   183 1   
   174    60    61 1   
   175    60   184 1   
   176    60   185 1   
   177    61    62 1   
   178    61   186 1   
   179    61   187 1   
   180    62    63 1   
   181    62   188 1   
   182    62   189 1   
   183    63    64 1   
   184    63   190 1   
   185    63   191 1   
   186    64    84 1   
   187    64   192 1   
   188    64   193 1   
   189    65    66 1   
   190    65    84 1   
   191    65   194 1   
   192    65   195 1   
   193    66    85 1   
   194    66   196 1   
   195    66   197 1   
   196    67    68 1   
   197    67    85 1   
   198    67   198 1   
   199    67   199 1   
   200    68    86 1   
   201    68   200 1   
   202    68   201 1   
   203    69    70 1   
   204    69    86 1   
   205    69   202 1   
   206    69   203 1   
   207    70    87 1   
   208    70   204 1   
   209    70   205 1   
   210    71    72 1   
   211    71    87 1   
   212    71   206 1   
   213    71   207 1   
   214    72   250 1   
   215    72   251 1   
   216    72   252 1   
   217   208   211 1   
   218   208   212 1   
   219   211   213 2   
   220   211   214 1   
   221   214   215 1   
   222   214   216 1   
   223   214   217 1   
   224   215   218 1   
   225   215   219 1   
   226   215   220 1   
   227   218   221 1   
   228   221   222 1   
   229   221   223 1   
   230   221   224 1   
   231   222   225 1   
   232   222   226 1   
   233   222   227 1   
   234   225   228 1   
   235   228   229 1   
   236   228   230 1   
   237   228   231 1   
   238   229   232 1   
   239   229   233 1   
   240   229   234 1   
   241   232   235 1   
   242   235   236 1   
   243   235   237 1   
   244   235   238 1   
   245   236   239 1   
   246   236   240 1   
   247   236   241 1   
   248   239   242 1   
   249   242   243 1   
   250   242   244 1   
   251   242   245 1   
   252   243   246 1   
   253   243   247 1   
   254   243   248 1   
   255   246   249 1   
   256   246   364 1   
   257   250   253 1   
   258   250   254 1   
   259   253   255 2   
   260   253   256 1   
   261   256   257 1   
   262   256   258 1   
   263   256   259 1   
   264   257   260 1   
   265   257   261 1   
   266   257   262 1   
   267   260   263 1   
   268   263   264 1   
   269   263   265 1   
   270   263   266 1   
   271   264   267 1   
   272   264   268 1   
   273   264   269 1   
   274   267   270 1   
   275   270   271 1   
   276   270   272 1   
   277   270   273 1   
   278   271   274 1   
   279   271   275 1   
   280   271   276 1   
   281   274   277 1   
   282   277   278 1   
   283   277   279 1   
   284   277   280 1   
   285   278   281 1   
   286   278   282 1   
   287   278   283 1   
   288   281   284 1   
   289   284   285 1   
   290   284   286 1   
   291   284   287 1   
   292   285   288 1   
   293   285   289 1   
   294   285   290 1   
   295   288   291 1   
   296   288   334 1   
   297   292   295 1   
   298   292   296 1   
   299   295   297 2   
   300   295   298 1   
   301   298   299 1   
   302   298   300 1   
   303   298   301 1   
   304   299   302 1   
   305   299   303 1   
   306   299   304 1   
   307   302   305 1   
   308   305   306 1   
   309   305   307 1   
   310   305   308 1   
   311   306   309 1   
   312   306   310 1   
   313   306   311 1   
   314   309   312 1   
   315   312   313 1   
   316   312   314 1   
   317   312   315 1   
   318   313   316 1   
   319   313   317 1   
   320   313   318 1   
   321   316   319 1   
   322   319   320 1   
   323   319   321 1   
   324   319   322 1   
   325   320   323 1   
   326   320   324 1   
   327   320   325 1   
   328   323   326 1   
   329   326   327 1   
   330   326   328 1   
   331   326   329 1   
   332   327   330 1   
   333   327   331 1   
   334   327   332 1   
   335   330   333 1   
   336   330   349 1   
   337   334   335 ar  
   338   334   342 ar  
   339   335   336 1   
   340   335   337 ar  
   341   337   338 1   
   342   337   339 ar  
   343   339   340 ar  
   344   339   343 1   
   345   340   341 1   
   346   340   342 ar  
   347   342   346 1   
   348   343   344 1   
   349   343   345 1   
   350   346   347 1   
   351   346   348 1   
   352   349   350 ar  
   353   349   357 ar  
   354   350   351 1   
   355   350   352 ar  
   356   352   353 1   
   357   352   354 ar  
   358   354   355 ar  
   359   354   358 1   
   360   355   356 1   
   361   355   357 ar  
   362   357   361 1   
   363   358   359 1   
   364   358   360 1   
   365   361   362 1   
   366   361   363 1   
   367   364   365 ar  
   368   364   372 ar  
   369   365   366 1   
   370   365   367 ar  
   371   367   368 1   
   372   367   369 ar  
   373   369   370 ar  
   374   369   373 1   
   375   370   371 1   
   376   370   372 ar  
   377   372   376 1   
   378   373   374 1   
   379   373   375 1   
   380   376   377 1   
   381   376   378 1   
@<TRIPOS>SUBSTRUCTURE
     1 MOL         1 TEMP              0 ****  ****    0 ROOT
