@<TRIPOS>MOLECULE
MOL
  219   219     1     0     0
SMALL
bcc


@<TRIPOS>ATOM
      1 N           -5.8520    14.8140   -17.8190 n          8 MOL      -0.559233
      2 N1          -4.1250     8.5690   -17.9890 n          8 MOL      -0.559233
      3 N2           0.3520    12.9570   -17.5880 n          8 MOL      -0.559233
      4 C           -2.0540    12.8700   -17.4210 ca         8 MOL      -0.156600
      5 C1          -2.1080    11.4820   -17.2250 ca         8 MOL      -0.037667
      6 C2          -3.2940    10.7640   -17.4120 ca         8 MOL      -0.156600
      7 C3          -4.4560    11.4620   -17.7670 ca         8 MOL      -0.037667
      8 C4          -4.4440    12.8540   -17.9280 ca         8 MOL      -0.156600
      9 C5          -3.2330    13.5450   -17.7600 ca         8 MOL      -0.037667
     10 C6          -5.7160    13.5730   -18.3000 c          8 MOL       0.669700
     11 C7          -3.3090     9.2720   -17.1960 c          8 MOL       0.669700
     12 C8          -4.3400     7.1570   -17.8290 c3         8 MOL       0.084000
     13 C9          -7.0120    15.5760   -18.1250 c3         8 MOL       0.084000
     14 C10          1.6200    13.6050   -17.4790 c3         8 MOL       0.084000
     15 C11         -0.7600    13.6310   -17.2680 c          8 MOL       0.669700
     16 C12         -6.7240    17.0730   -18.0090 c3         8 MOL      -0.105067
     17 C13         -8.0150    17.8160   -18.3380 c3         8 MOL      -0.077400
     18 C14         -7.8000    19.3270   -18.2440 c3         8 MOL      -0.078733
     19 C15         -9.1310    19.9970   -18.5780 c3         8 MOL      -0.079400
     20 C16         -9.0130    21.5200   -18.5090 c3         8 MOL      -0.079067
     21 C17        -10.3920    22.0850   -18.8460 c3         8 MOL      -0.079400
     22 C18        -10.3930    23.6130   -18.8040 c3         8 MOL      -0.079400
     23 C19        -11.8200    24.0580   -19.1440 c3         8 MOL      -0.078400
     24 C20        -11.9580    25.5830   -19.1290 c3         8 MOL      -0.078400
     25 C21        -13.4210    25.8970   -19.4700 c3         8 MOL      -0.084400
     26 C22        -13.6860    27.4080   -19.4790 c3         8 MOL       0.133400
     27 C23        -15.4040    28.9360   -19.8170 c3         8 MOL       0.128400
     28 C24        -16.8410    29.0020   -20.1350 c3         8 MOL       0.130400
     29 C25        -18.4240    30.5030   -20.4110 c3         8 MOL       0.130400
     30 C26        -18.6040    31.9130   -20.3880 c3         8 MOL       0.129400
     31 C27        -20.3310    33.2590   -20.6900 c3         8 MOL       0.130400
     32 C28        -21.7170    33.0670   -20.9830 c3         8 MOL       0.128400
     33 C29        -23.5520    34.2690   -21.2850 c3         8 MOL       0.094400
     34 C30        -23.9340    35.6950   -21.2750 c3         8 MOL       0.125400
     35 C31         -3.1130     6.2890   -18.1420 c3         8 MOL      -0.105067
     36 C32         -3.5910     4.8550   -17.9120 c3         8 MOL      -0.077400
     37 C33         -2.5100     3.8120   -18.1810 c3         8 MOL      -0.078733
     38 C34         -3.1860     2.4580   -17.9270 c3         8 MOL      -0.079400
     39 C35         -2.2530     1.2690   -18.1650 c3         8 MOL      -0.079067
     40 C36         -3.0990     0.0190   -17.8940 c3         8 MOL      -0.079400
     41 C37         -2.3110    -1.2750   -18.1060 c3         8 MOL      -0.079400
     42 C38         -3.2920    -2.4260   -17.8250 c3         8 MOL      -0.078400
     43 C39         -2.6430    -3.8030   -18.0180 c3         8 MOL      -0.078400
     44 C40         -3.7320    -4.8520   -17.7310 c3         8 MOL      -0.084400
     45 C41         -3.2030    -6.2860   -17.9110 c3         8 MOL       0.133400
     46 C42         -3.9010    -8.5110   -17.8120 c3         8 MOL       0.128400
     47 C43         -5.0950    -9.3420   -17.5440 c3         8 MOL       0.130400
     48 C44         -5.7280   -11.4550   -17.5450 c3         8 MOL       0.130400
     49 C45         -5.2200   -12.7670   -17.7870 c3         8 MOL       0.129400
     50 C46         -6.1130   -14.7950   -17.7730 c3         8 MOL       0.130400
     51 C47         -7.4240   -15.3120   -17.5220 c3         8 MOL       0.128400
     52 C48         -8.5020   -17.2460   -17.5050 c3         8 MOL       0.094400
     53 C49         -8.2030   -18.6700   -17.7610 c3         8 MOL       0.125400
     54 C50          2.7790    12.6090   -17.3980 c3         8 MOL      -0.105067
     55 C51          4.0660    13.4310   -17.2660 c3         8 MOL      -0.077400
     56 C52          5.2890    12.5180   -17.1590 c3         8 MOL      -0.078733
     57 C53          6.5270    13.4120   -17.0050 c3         8 MOL      -0.079400
     58 C54          7.7950    12.5630   -16.8730 c3         8 MOL      -0.079067
     59 C55          8.9830    13.5160   -16.6990 c3         8 MOL      -0.079400
     60 C56         10.2830    12.7210   -16.5430 c3         8 MOL      -0.079400
     61 C57         11.4370    13.7190   -16.3510 c3         8 MOL      -0.078400
     62 C58         12.7660    12.9720   -16.1740 c3         8 MOL      -0.078400
     63 C59         13.8800    14.0100   -15.9690 c3         8 MOL      -0.084400
     64 C60         15.2310    13.3030   -15.7750 c3         8 MOL       0.133400
     65 C61         17.4750    13.6840   -15.3770 c3         8 MOL       0.128400
     66 C62         18.4750    14.7460   -15.1550 c3         8 MOL       0.130400
     67 C63         20.6460    14.8840   -14.7280 c3         8 MOL       0.130400
     68 C64         21.7500    14.0070   -14.5440 c3         8 MOL       0.129400
     69 C65         23.8930    14.2520   -14.0890 c3         8 MOL       0.130400
     70 C66         24.7610    15.3620   -13.8500 c3         8 MOL       0.128400
     71 C67         26.8880    15.7500   -13.3550 c3         8 MOL       0.094400
     72 C68         28.1100    14.9600   -13.1040 c3         8 MOL       0.125400
     73 O           -6.5710    13.0310   -19.0020 o          8 MOL      -0.607433
     74 O1          -2.5990     8.7510   -16.3340 o          8 MOL      -0.607433
     75 O2          -0.7470    14.8080   -16.9050 o          8 MOL      -0.607433
     76 O3         -15.0700    27.5960   -19.7950 os         8 MOL      -0.427600
     77 O4         -17.1410    30.3410   -20.1450 os         8 MOL      -0.430600
     78 O5         -19.9030    32.0010   -20.6560 os         8 MOL      -0.430600
     79 O6         -22.2000    34.2910   -21.0260 os         8 MOL      -0.425600
     80 O7         -25.2970    35.7850   -21.5190 oh         8 MOL      -0.592800
     81 O8          -4.2870    -7.1860   -17.6430 os         8 MOL      -0.427600
     82 O9          -4.6910   -10.6490   -17.7350 os         8 MOL      -0.430600
     83 O10         -6.3190   -13.4940   -17.5900 os         8 MOL      -0.430600
     84 O11         -7.2930   -16.6110   -17.6970 os         8 MOL      -0.425600
     85 O12         -9.3730   -19.3990   -17.6010 oh         8 MOL      -0.592800
     86 O13         16.2480    14.2940   -15.5730 os         8 MOL      -0.427600
     87 O14         19.6470    14.0550   -14.9630 os         8 MOL      -0.430600
     88 O15         22.7330    14.8670   -14.3030 os         8 MOL      -0.430600
     89 O16         25.9300    14.7970   -13.6260 os         8 MOL      -0.425600
     90 O17         29.1450    15.8350   -12.8090 oh         8 MOL      -0.592800
     91 H253        -1.2180    10.9520   -16.9140 ha         8 MOL       0.162000
     92 H254        -5.3870    10.9240   -17.8990 ha         8 MOL       0.162000
     93 H255        -3.1970    14.6170   -17.9150 ha         8 MOL       0.162000
     94 H250        -5.1530    15.1320   -17.1640 hn         8 MOL       0.312167
     95 H251        -4.5500     9.0590   -18.7700 hn         8 MOL       0.312167
     96 H252         0.2190    12.0540   -18.0140 hn         8 MOL       0.312167
     97 H6          -7.8060    15.3090   -17.4140 h1         8 MOL       0.064367
     98 H7          -7.3520    15.3240   -19.1400 h1         8 MOL       0.064367
     99 H8          -5.9360    17.3600   -18.7200 hc         8 MOL       0.046200
    100 H9          -6.4060    17.3170   -16.9850 hc         8 MOL       0.046200
    101 H10         -8.7950    17.5140   -17.6260 hc         8 MOL       0.043200
    102 H11         -8.3320    17.5580   -19.3580 hc         8 MOL       0.043200
    103 H12         -7.0290    19.6410   -18.9630 hc         8 MOL       0.041033
    104 H13         -7.4880    19.5970   -17.2260 hc         8 MOL       0.041033
    105 H14         -9.8910    19.6640   -17.8570 hc         8 MOL       0.040700
    106 H15         -9.4390    19.7060   -19.5920 hc         8 MOL       0.040700
    107 H16         -8.2700    21.8750   -19.2370 hc         8 MOL       0.040033
    108 H17         -8.7180    21.8300   -17.4960 hc         8 MOL       0.040033
    109 H18        -11.1200    21.7060   -18.1160 hc         8 MOL       0.040533
    110 H19        -10.6800    21.7530   -19.8540 hc         8 MOL       0.040533
    111 H20         -9.6810    24.0110   -19.5420 hc         8 MOL       0.039700
    112 H21        -10.1180    23.9600   -17.7970 hc         8 MOL       0.039700
    113 H22        -12.5110    23.6320   -18.4030 hc         8 MOL       0.041700
    114 H23        -12.0840    23.6850   -20.1430 hc         8 MOL       0.041700
    115 H24        -11.2890    26.0310   -19.8780 hc         8 MOL       0.040367
    116 H25        -11.7130    25.9730   -18.1300 hc         8 MOL       0.040367
    117 H26        -14.0690    25.4250   -18.7180 hc         8 MOL       0.055200
    118 H27        -13.6540    25.4840   -20.4620 hc         8 MOL       0.055200
    119 H28        -13.0560    27.8960   -20.2380 h1         8 MOL       0.027700
    120 H29        -13.4680    27.8310   -18.4870 h1         8 MOL       0.027700
    121 H30        -14.8280    29.4650   -20.5890 h1         8 MOL       0.039700
    122 H31        -15.2230    29.3940   -18.8350 h1         8 MOL       0.039700
    123 H32        -17.4250    28.4800   -19.3600 h1         8 MOL       0.042367
    124 H33        -17.0360    28.5520   -21.1210 h1         8 MOL       0.042367
    125 H34        -19.0510    30.0310   -19.6410 h1         8 MOL       0.042200
    126 H35        -18.6770    30.1050   -21.4030 h1         8 MOL       0.042200
    127 H36        -17.9930    32.3970   -21.1640 h1         8 MOL       0.042700
    128 H37        -18.3640    32.3200   -19.3950 h1         8 MOL       0.042700
    129 H38        -19.8380    33.8350   -21.4880 h1         8 MOL       0.042700
    130 H39        -20.2050    33.7580   -19.7180 h1         8 MOL       0.042700
    131 H40        -22.1910    32.4800   -20.1830 h1         8 MOL       0.042200
    132 H41        -21.8340    32.5560   -21.9490 h1         8 MOL       0.042200
    133 H42        -24.0910    33.7230   -20.4940 h1         8 MOL       0.033700
    134 H43        -23.7560    33.8160   -22.2670 h1         8 MOL       0.033700
    135 H44        -23.3730    36.2290   -22.0540 h1         8 MOL       0.059200
    136 H45        -23.7000    36.1230   -20.2910 h1         8 MOL       0.059200
    137 H46         -5.1620     6.8490   -18.4910 h1         8 MOL       0.064367
    138 H47         -4.6150     6.9650   -16.7810 h1         8 MOL       0.064367
    139 H48         -2.2790     6.5330   -17.4660 hc         8 MOL       0.046200
    140 H49         -2.8010     6.4230   -19.1880 hc         8 MOL       0.046200
    141 H50         -4.4380     4.6610   -18.5840 hc         8 MOL       0.043200
    142 H51         -3.9270     4.7550   -16.8700 hc         8 MOL       0.043200
    143 H52         -1.6590     3.9560   -17.5020 hc         8 MOL       0.041033
    144 H53         -2.1730     3.8800   -19.2230 hc         8 MOL       0.041033
    145 H54         -4.0460     2.3670   -18.6060 hc         8 MOL       0.040700
    146 H55         -3.5430     2.4270   -16.8880 hc         8 MOL       0.040700
    147 H56         -1.3940     1.3100   -17.4800 hc         8 MOL       0.040033
    148 H57         -1.9010     1.2670   -19.2070 hc         8 MOL       0.040033
    149 H58         -3.9590     0.0240   -18.5790 hc         8 MOL       0.040533
    150 H59         -3.4630     0.0510   -16.8570 hc         8 MOL       0.040533
    151 H60         -1.4560    -1.3180   -17.4160 hc         8 MOL       0.039700
    152 H61         -1.9550    -1.3290   -19.1460 hc         8 MOL       0.039700
    153 H62         -4.1430    -2.3390   -18.5160 hc         8 MOL       0.041700
    154 H63         -3.6560    -2.3440   -16.7910 hc         8 MOL       0.041700
    155 H64         -1.8000    -3.9270   -17.3230 hc         8 MOL       0.040367
    156 H65         -2.2890    -3.9060   -19.0540 hc         8 MOL       0.040367
    157 H66         -4.5680    -4.6920   -18.4270 hc         8 MOL       0.055200
    158 H67         -4.0900    -4.7250   -16.6980 hc         8 MOL       0.055200
    159 H68         -2.3740    -6.4750   -17.2120 h1         8 MOL       0.027700
    160 H69         -2.8540    -6.4240   -18.9460 h1         8 MOL       0.027700
    161 H70         -3.0980    -8.7730   -17.1090 h1         8 MOL       0.039700
    162 H71         -3.5640    -8.6800   -18.8440 h1         8 MOL       0.039700
    163 H72         -5.8980    -9.0830   -18.2530 h1         8 MOL       0.042367
    164 H73         -5.4450    -9.1900   -16.5100 h1         8 MOL       0.042367
    165 H74         -6.5320   -11.2310   -18.2590 h1         8 MOL       0.042200
    166 H75         -6.1050   -11.3790   -16.5150 h1         8 MOL       0.042200
    167 H76         -4.4260   -13.0230   -17.0690 h1         8 MOL       0.042700
    168 H77         -4.8530   -12.8580   -18.8200 h1         8 MOL       0.042700
    169 H78         -5.3860   -15.1980   -17.0530 h1         8 MOL       0.042700
    170 H79         -5.8010   -15.0150   -18.8040 h1         8 MOL       0.042700
    171 H80         -8.1380   -14.8860   -18.2420 h1         8 MOL       0.042200
    172 H81         -7.7360   -15.0760   -16.4950 h1         8 MOL       0.042200
    173 H82         -9.2520   -16.8790   -18.2240 h1         8 MOL       0.033700
    174 H83         -8.8620   -17.1010   -16.4750 h1         8 MOL       0.033700
    175 H84         -7.4400   -19.0170   -17.0500 h1         8 MOL       0.059200
    176 H85         -7.8290   -18.7800   -18.7880 h1         8 MOL       0.059200
    177 H86          1.6080    14.2460   -16.5850 h1         8 MOL       0.064367
    178 H87          1.7620    14.2480   -18.3590 h1         8 MOL       0.064367
    179 H88          2.8150    11.9910   -18.3070 hc         8 MOL       0.046200
    180 H89          2.6580    11.9650   -16.5150 hc         8 MOL       0.046200
    181 H90          4.0010    14.0490   -16.3600 hc         8 MOL       0.043200
    182 H91          4.1720    14.0840   -18.1440 hc         8 MOL       0.043200
    183 H92          5.3770    11.9010   -18.0640 hc         8 MOL       0.041033
    184 H93          5.1890    11.8700   -16.2770 hc         8 MOL       0.041033
    185 H94          6.4130    14.0280   -16.1010 hc         8 MOL       0.040700
    186 H95          6.6170    14.0680   -17.8840 hc         8 MOL       0.040700
    187 H96          7.9320    11.9500   -17.7750 hc         8 MOL       0.040033
    188 H97          7.7130    11.9120   -15.9910 hc         8 MOL       0.040033
    189 H98          8.8250    14.1270   -15.7990 hc         8 MOL       0.040533
    190 H99          9.0590    14.1730   -17.5770 hc         8 MOL       0.040533
    191 H100        10.4570    12.1110   -17.4420 hc         8 MOL       0.039700
    192 H101        10.2100    12.0670   -15.6620 hc         8 MOL       0.039700
    193 H102        11.2430    14.3250   -15.4550 hc         8 MOL       0.041700
    194 H103        11.5020    14.3760   -17.2300 hc         8 MOL       0.041700
    195 H104        12.9770    12.3690   -17.0690 hc         8 MOL       0.040367
    196 H105        12.7060    12.3180   -15.2930 hc         8 MOL       0.040367
    197 H106        13.6530    14.6110   -15.0770 hc         8 MOL       0.055200
    198 H107        13.9330    14.6670   -16.8490 hc         8 MOL       0.055200
    199 H108        15.4680    12.7020   -16.6660 h1         8 MOL       0.027700
    200 H109        15.1770    12.6470   -14.8930 h1         8 MOL       0.027700
    201 H110        17.7550    13.0950   -16.2610 h1         8 MOL       0.039700
    202 H111        17.4370    13.0330   -14.4930 h1         8 MOL       0.039700
    203 H112        18.2170    15.3350   -14.2610 h1         8 MOL       0.042367
    204 H113        18.5460    15.4040   -16.0360 h1         8 MOL       0.042367
    205 H114        20.4710    15.4710   -13.8160 h1         8 MOL       0.042200
    206 H115        20.8250    15.5510   -15.5840 h1         8 MOL       0.042200
    207 H116        21.9360    13.4200   -15.4550 h1         8 MOL       0.042700
    208 H117        21.5740    13.3420   -13.6860 h1         8 MOL       0.042700
    209 H118        24.2200    13.6830   -14.9720 h1         8 MOL       0.042700
    210 H119        23.8480    13.6000   -13.2040 h1         8 MOL       0.042700
    211 H120        24.4170    15.9260   -12.9720 h1         8 MOL       0.042200
    212 H121        24.7950    16.0150   -14.7330 h1         8 MOL       0.042200
    213 H122        26.6170    16.3310   -12.4580 h1         8 MOL       0.033700
    214 H123        27.0260    16.4230   -14.2160 h1         8 MOL       0.033700
    215 H124        28.3550    14.3710   -13.9990 h1         8 MOL       0.059200
    216 H125        27.9340    14.2860   -12.2550 h1         8 MOL       0.059200
    217 H126        29.3160    16.4340   -13.5780 ho         8 MOL       0.398000
    218 H127       -25.5090    35.4130   -22.4120 ho         8 MOL       0.398000
    219 H128        -9.7040   -19.3110   -16.6720 ho         8 MOL       0.398000
@<TRIPOS>BOND
     1     1    10 1   
     2     1    13 1   
     3     1    94 1   
     4     2    11 1   
     5     2    12 1   
     6     2    95 1   
     7     3    14 1   
     8     3    15 1   
     9     3    96 1   
    10     4     5 ar  
    11     4     9 ar  
    12     4    15 1   
    13     5     6 ar  
    14     5    91 1   
    15     6     7 ar  
    16     6    11 1   
    17     7     8 ar  
    18     7    92 1   
    19     8     9 ar  
    20     8    10 1   
    21     9    93 1   
    22    10    73 2   
    23    11    74 2   
    24    12    35 1   
    25    12   137 1   
    26    12   138 1   
    27    13    16 1   
    28    13    97 1   
    29    13    98 1   
    30    14    54 1   
    31    14   177 1   
    32    14   178 1   
    33    15    75 2   
    34    16    17 1   
    35    16    99 1   
    36    16   100 1   
    37    17    18 1   
    38    17   101 1   
    39    17   102 1   
    40    18    19 1   
    41    18   103 1   
    42    18   104 1   
    43    19    20 1   
    44    19   105 1   
    45    19   106 1   
    46    20    21 1   
    47    20   107 1   
    48    20   108 1   
    49    21    22 1   
    50    21   109 1   
    51    21   110 1   
    52    22    23 1   
    53    22   111 1   
    54    22   112 1   
    55    23    24 1   
    56    23   113 1   
    57    23   114 1   
    58    24    25 1   
    59    24   115 1   
    60    24   116 1   
    61    25    26 1   
    62    25   117 1   
    63    25   118 1   
    64    26    76 1   
    65    26   119 1   
    66    26   120 1   
    67    27    28 1   
    68    27    76 1   
    69    27   121 1   
    70    27   122 1   
    71    28    77 1   
    72    28   123 1   
    73    28   124 1   
    74    29    30 1   
    75    29    77 1   
    76    29   125 1   
    77    29   126 1   
    78    30    78 1   
    79    30   127 1   
    80    30   128 1   
    81    31    32 1   
    82    31    78 1   
    83    31   129 1   
    84    31   130 1   
    85    32    79 1   
    86    32   131 1   
    87    32   132 1   
    88    33    34 1   
    89    33    79 1   
    90    33   133 1   
    91    33   134 1   
    92    34    80 1   
    93    34   135 1   
    94    34   136 1   
    95    35    36 1   
    96    35   139 1   
    97    35   140 1   
    98    36    37 1   
    99    36   141 1   
   100    36   142 1   
   101    37    38 1   
   102    37   143 1   
   103    37   144 1   
   104    38    39 1   
   105    38   145 1   
   106    38   146 1   
   107    39    40 1   
   108    39   147 1   
   109    39   148 1   
   110    40    41 1   
   111    40   149 1   
   112    40   150 1   
   113    41    42 1   
   114    41   151 1   
   115    41   152 1   
   116    42    43 1   
   117    42   153 1   
   118    42   154 1   
   119    43    44 1   
   120    43   155 1   
   121    43   156 1   
   122    44    45 1   
   123    44   157 1   
   124    44   158 1   
   125    45    81 1   
   126    45   159 1   
   127    45   160 1   
   128    46    47 1   
   129    46    81 1   
   130    46   161 1   
   131    46   162 1   
   132    47    82 1   
   133    47   163 1   
   134    47   164 1   
   135    48    49 1   
   136    48    82 1   
   137    48   165 1   
   138    48   166 1   
   139    49    83 1   
   140    49   167 1   
   141    49   168 1   
   142    50    51 1   
   143    50    83 1   
   144    50   169 1   
   145    50   170 1   
   146    51    84 1   
   147    51   171 1   
   148    51   172 1   
   149    52    53 1   
   150    52    84 1   
   151    52   173 1   
   152    52   174 1   
   153    53    85 1   
   154    53   175 1   
   155    53   176 1   
   156    54    55 1   
   157    54   179 1   
   158    54   180 1   
   159    55    56 1   
   160    55   181 1   
   161    55   182 1   
   162    56    57 1   
   163    56   183 1   
   164    56   184 1   
   165    57    58 1   
   166    57   185 1   
   167    57   186 1   
   168    58    59 1   
   169    58   187 1   
   170    58   188 1   
   171    59    60 1   
   172    59   189 1   
   173    59   190 1   
   174    60    61 1   
   175    60   191 1   
   176    60   192 1   
   177    61    62 1   
   178    61   193 1   
   179    61   194 1   
   180    62    63 1   
   181    62   195 1   
   182    62   196 1   
   183    63    64 1   
   184    63   197 1   
   185    63   198 1   
   186    64    86 1   
   187    64   199 1   
   188    64   200 1   
   189    65    66 1   
   190    65    86 1   
   191    65   201 1   
   192    65   202 1   
   193    66    87 1   
   194    66   203 1   
   195    66   204 1   
   196    67    68 1   
   197    67    87 1   
   198    67   205 1   
   199    67   206 1   
   200    68    88 1   
   201    68   207 1   
   202    68   208 1   
   203    69    70 1   
   204    69    88 1   
   205    69   209 1   
   206    69   210 1   
   207    70    89 1   
   208    70   211 1   
   209    70   212 1   
   210    71    72 1   
   211    71    89 1   
   212    71   213 1   
   213    71   214 1   
   214    72    90 1   
   215    72   215 1   
   216    72   216 1   
   217    80   218 1   
   218    85   219 1   
   219    90   217 1   
@<TRIPOS>SUBSTRUCTURE
     1 MOL         1 TEMP              0 ****  ****    0 ROOT
