@<TRIPOS>MOLECULE
MOL
  378   381     1     0     0
SMALL
bcc


@<TRIPOS>ATOM
      1 N           -6.1690    14.5670   -21.5580 n          9 MOL      -0.562233
      2 N1          -2.7320     9.0770   -21.5000 n          9 MOL      -0.562233
      3 N2           0.8010    12.6780   -21.6220 n          9 MOL      -0.562233
      4 C           -1.5420    13.1700   -21.3390 ca         9 MOL      -0.155933
      5 C1          -1.9160    11.8290   -21.1700 ca         9 MOL      -0.040333
      6 C2          -3.2540    11.4250   -21.2850 ca         9 MOL      -0.155933
      7 C3          -4.2310    12.3970   -21.5390 ca         9 MOL      -0.040333
      8 C4          -3.8890    13.7500   -21.6990 ca         9 MOL      -0.155933
      9 C5          -2.5400    14.1190   -21.5970 ca         9 MOL      -0.040333
     10 C6          -4.9320    14.7970   -22.0120 c          9 MOL       0.668367
     11 C7          -3.6500     9.9770   -21.1250 c          9 MOL       0.668367
     12 C8          -2.9350     7.6300   -21.3510 c3         9 MOL       0.083000
     13 C9          -7.2830    15.4020   -21.9070 c3         9 MOL       0.083000
     14 C10          2.2240    12.9400   -21.5450 c3         9 MOL       0.083000
     15 C11         -0.0960    13.5950   -21.2400 c          9 MOL       0.668367
     16 C12          2.9710    11.6090   -21.2900 c3         9 MOL      -0.104733
     17 C13          4.4980    11.8410   -21.1960 c3         9 MOL      -0.077733
     18 C14          5.1880    10.4790   -20.9350 c3         9 MOL      -0.078400
     19 C15          6.7250    10.6410   -20.8180 c3         9 MOL      -0.079400
     20 C16          7.3490     9.2490   -20.5530 c3         9 MOL      -0.079067
     21 C17          8.8870     9.3490   -20.4150 c3         9 MOL      -0.079400
     22 C18          9.4520     7.9320   -20.1480 c3         9 MOL      -0.079400
     23 C19         10.9960     7.9690   -19.9900 c3         9 MOL      -0.078400
     24 C20         11.5160     6.5360   -19.7230 c3         9 MOL      -0.078400
     25 C21         13.0560     6.5440   -19.5490 c3         9 MOL      -0.084067
     26 C22         13.5520     5.0930   -19.2800 c3         9 MOL       0.133067
     27 C23         15.3900     3.6990   -18.8590 c3         9 MOL       0.128067
     28 C24         16.9400     3.6140   -18.6310 c3         9 MOL       0.129400
     29 C25         18.7700     2.2000   -18.1510 c3         9 MOL       0.129400
     30 C26         19.2370     0.7050   -17.8720 c3         9 MOL       0.128733
     31 C27         20.9770    -0.8130   -17.3740 c3         9 MOL       0.129067
     32 C28         22.5240    -1.0700   -17.0450 c3         9 MOL       0.128400
     33 C29         24.2040    -2.6800   -16.4760 c3         9 MOL       0.105400
     34 C30         24.5870    -4.2280   -16.1870 c3         9 MOL       0.085000
     35 C31         -4.2750     7.1340   -21.9310 c3         9 MOL      -0.104733
     36 C32         -4.3710     5.6420   -21.6520 c3         9 MOL      -0.077733
     37 C33         -5.7060     5.1150   -22.1540 c3         9 MOL      -0.078400
     38 C34         -5.7820     3.6320   -21.8160 c3         9 MOL      -0.079400
     39 C35         -7.1280     3.0770   -22.2560 c3         9 MOL      -0.079067
     40 C36         -7.1770     1.6060   -21.8680 c3         9 MOL      -0.079400
     41 C37         -8.5280     1.0260   -22.2540 c3         9 MOL      -0.079400
     42 C38         -8.5550    -0.4370   -21.8280 c3         9 MOL      -0.078400
     43 C39         -9.9080    -1.0410   -22.1720 c3         9 MOL      -0.078400
     44 C40         -9.9100    -2.4970   -21.7200 c3         9 MOL      -0.084067
     45 C41        -11.2680    -3.1160   -22.0360 c3         9 MOL       0.133067
     46 C42        -12.5280    -5.0250   -21.8800 c3         9 MOL       0.128067
     47 C43        -12.5240    -6.4790   -21.4350 c3         9 MOL       0.129400
     48 C44        -13.7850    -8.3760   -21.3250 c3         9 MOL       0.129400
     49 C45        -15.1570    -8.9570   -21.6360 c3         9 MOL       0.128733
     50 C46        -16.4540   -10.8280   -21.5910 c3         9 MOL       0.129067
     51 C47        -16.4930   -12.3210   -21.2470 c3         9 MOL       0.128400
     52 C48        -17.7640   -14.2560   -21.2660 c3         9 MOL       0.105400
     53 C49        -19.1280   -14.9470   -21.5990 c3         9 MOL       0.085000
     54 C50         -7.2260    16.8140   -21.3240 c3         9 MOL      -0.104733
     55 C51         -8.4970    17.4670   -21.8430 c3         9 MOL      -0.077733
     56 C52         -8.6580    18.9070   -21.3950 c3         9 MOL      -0.078400
     57 C53         -9.9830    19.3460   -22.0090 c3         9 MOL      -0.079400
     58 C54        -10.3400    20.7880   -21.6890 c3         9 MOL      -0.079067
     59 C55        -11.6810    21.0230   -22.3760 c3         9 MOL      -0.079400
     60 C56        -12.1880    22.4410   -22.1710 c3         9 MOL      -0.079400
     61 C57        -13.5280    22.5180   -22.9050 c3         9 MOL      -0.078400
     62 C58        -14.1460    23.9060   -22.7940 c3         9 MOL      -0.078400
     63 C59        -15.4740    23.8650   -23.5520 c3         9 MOL      -0.084067
     64 C60        -16.1560    25.2260   -23.5040 c3         9 MOL       0.133067
     65 C61        -18.0290    26.3270   -24.2290 c3         9 MOL       0.128067
     66 C62        -19.3030    26.1410   -24.9290 c3         9 MOL       0.129400
     67 C63        -21.0400    27.4230   -25.3930 c3         9 MOL       0.129400
     68 C64        -21.3730    28.7850   -25.2190 c3         9 MOL       0.128733
     69 C65        -23.1420    30.0400   -25.6070 c3         9 MOL       0.129067
     70 C66        -24.4830    29.7780   -26.0710 c3         9 MOL       0.128400
     71 C67        -26.4870    30.7330   -26.3450 c3         9 MOL       0.105400
     72 C68        -27.2090    32.0420   -26.2160 c3         9 MOL       0.085000
     73 O           -4.6420    15.8120   -22.6470 o          9 MOL      -0.594767
     74 O1          -4.7580     9.6600   -20.6910 o          9 MOL      -0.594767
     75 O2           0.2190    14.7220   -20.8560 o          9 MOL      -0.594767
     76 O5          14.9830     5.0610   -19.1030 os         9 MOL      -0.427933
     77 O6          17.3430     2.2470   -18.3830 os         9 MOL      -0.429600
     78 O7          20.6720     0.5940   -17.6170 os         9 MOL      -0.430600
     79 O8          22.7800    -2.4810   -16.8050 os         9 MOL      -0.425600
     80 O9         -11.2670    -4.4680   -21.6090 os         9 MOL      -0.427933
     81 O10        -13.7900    -7.0270   -21.7100 os         9 MOL      -0.429600
     82 O11        -15.1750   -10.3150   -21.2760 os         9 MOL      -0.430600
     83 O12        -17.7690   -12.8460   -21.5710 os         9 MOL      -0.425600
     84 O13        -17.3900    25.1210   -24.2160 os         9 MOL      -0.427933
     85 O14        -19.8380    27.3880   -24.8760 os         9 MOL      -0.429600
     86 O15        -22.5990    28.8150   -25.6930 os         9 MOL      -0.430600
     87 O16        -25.1460    30.9480   -26.0010 os         9 MOL      -0.425600
     88 H253        -1.1590    11.0940   -20.9300 ha         9 MOL       0.162000
     89 H254        -5.2660    12.0880   -21.6260 ha         9 MOL       0.162000
     90 H255        -2.2610    15.1590   -21.7260 ha         9 MOL       0.162000
     91 H250        -6.2910    13.8250   -20.8770 hn         9 MOL       0.306833
     92 H251        -1.8860     9.4270   -21.9210 hn         9 MOL       0.306833
     93 H252         0.4350    11.8700   -22.1010 hn         9 MOL       0.306833
     94 H6           2.4200    13.6610   -20.7370 h1         9 MOL       0.064533
     95 H7           2.5670    13.3670   -22.4980 h1         9 MOL       0.064533
     96 H9           2.7600    10.9110   -22.1140 hc         9 MOL       0.044867
     97 H10          2.6160    11.1720   -20.3440 hc         9 MOL       0.044867
     98 H11          4.7140    12.5300   -20.3670 hc         9 MOL       0.043867
     99 H12          4.8660    12.2710   -22.1380 hc         9 MOL       0.043867
    100 H13          4.9580     9.7950   -21.7640 hc         9 MOL       0.040700
    101 H14          4.8010    10.0570   -19.9970 hc         9 MOL       0.040700
    102 H15          6.9640    11.3150   -19.9830 hc         9 MOL       0.040867
    103 H16          7.1300    11.0550   -21.7530 hc         9 MOL       0.040867
    104 H17          7.1030     8.5790   -21.3880 hc         9 MOL       0.040033
    105 H18          6.9310     8.8400   -19.6220 hc         9 MOL       0.040033
    106 H19          9.1390    10.0110   -19.5750 hc         9 MOL       0.040367
    107 H20          9.3180     9.7510   -21.3430 hc         9 MOL       0.040367
    108 H21          9.1890     7.2760   -20.9910 hc         9 MOL       0.039700
    109 H22          9.0050     7.5370   -19.2250 hc         9 MOL       0.039700
    110 H23         11.2640     8.6170   -19.1430 hc         9 MOL       0.041700
    111 H24         11.4550     8.3590   -20.9090 hc         9 MOL       0.041700
    112 H25         11.2480     5.8890   -20.5700 hc         9 MOL       0.040033
    113 H26         11.0510     6.1480   -18.8050 hc         9 MOL       0.040033
    114 H27         13.3220     7.1890   -18.6980 hc         9 MOL       0.054867
    115 H28         13.5250     6.9330   -20.4650 hc         9 MOL       0.054867
    116 H29         13.2790     4.4540   -20.1330 h1         9 MOL       0.027200
    117 H30         13.0690     4.7110   -18.3690 h1         9 MOL       0.027200
    118 H31         15.1090     3.0800   -19.7260 h1         9 MOL       0.040867
    119 H32         14.8700     3.3280   -17.9620 h1         9 MOL       0.040867
    120 H33         17.2130     4.2320   -17.7630 h1         9 MOL       0.042533
    121 H34         17.4640     3.9870   -19.5230 h1         9 MOL       0.042533
    122 H35         19.0080     2.8320   -17.2800 h1         9 MOL       0.042533
    123 H36         19.2900     2.5950   -19.0400 h1         9 MOL       0.042533
    124 H37         18.9870     0.0810   -18.7460 h1         9 MOL       0.043033
    125 H38         18.6980     0.3210   -16.9920 h1         9 MOL       0.043033
    126 H39         20.6950    -1.3890   -18.2700 h1         9 MOL       0.043700
    127 H40         20.3690    -1.1550   -16.5210 h1         9 MOL       0.043700
    128 H41         22.8070    -0.5050   -16.1430 h1         9 MOL       0.043033
    129 H42         23.1480    -0.7390   -17.8910 h1         9 MOL       0.043033
    130 H43         24.4320    -2.0810   -15.5810 h1         9 MOL       0.032700
    131 H44         24.8060    -2.3100   -17.3200 h1         9 MOL       0.032700
    132 H45         -2.9440     7.4000   -20.2750 h1         9 MOL       0.064533
    133 H46         -2.1060     7.0910   -21.8310 h1         9 MOL       0.064533
    134 H47         -4.3230     7.3240   -23.0130 hc         9 MOL       0.044867
    135 H48         -5.1090     7.6410   -21.4290 hc         9 MOL       0.044867
    136 H49         -4.3090     5.4780   -20.5670 hc         9 MOL       0.043867
    137 H50         -3.5460     5.1140   -22.1500 hc         9 MOL       0.043867
    138 H51         -5.7900     5.2650   -23.2390 hc         9 MOL       0.040700
    139 H52         -6.5210     5.6470   -21.6430 hc         9 MOL       0.040700
    140 H53         -5.6840     3.5060   -20.7290 hc         9 MOL       0.040867
    141 H54         -4.9710     3.0910   -22.3230 hc         9 MOL       0.040867
    142 H55         -7.2480     3.1860   -23.3440 hc         9 MOL       0.040033
    143 H56         -7.9330     3.6180   -21.7400 hc         9 MOL       0.040033
    144 H57         -7.0460     1.5160   -20.7800 hc         9 MOL       0.040367
    145 H58         -6.3740     1.0590   -22.3810 hc         9 MOL       0.040367
    146 H59         -8.6760     1.1060   -23.3410 hc         9 MOL       0.039700
    147 H60         -9.3250     1.5760   -21.7320 hc         9 MOL       0.039700
    148 H61         -8.3960    -0.5020   -20.7420 hc         9 MOL       0.041700
    149 H62         -7.7590    -0.9890   -22.3480 hc         9 MOL       0.041700
    150 H63        -10.0800    -0.9860   -23.2560 hc         9 MOL       0.040033
    151 H64        -10.7000    -0.4920   -21.6440 hc         9 MOL       0.040033
    152 H65         -9.7300    -2.5430   -20.6360 hc         9 MOL       0.054867
    153 H66         -9.1170    -3.0470   -22.2480 hc         9 MOL       0.054867
    154 H67        -11.4550    -3.0710   -23.1190 h1         9 MOL       0.027200
    155 H68        -12.0560    -2.5640   -21.5030 h1         9 MOL       0.027200
    156 H69        -12.7310    -4.9690   -22.9610 h1         9 MOL       0.040867
    157 H70        -13.3030    -4.4690   -21.3300 h1         9 MOL       0.040867
    158 H71        -12.3190    -6.5400   -20.3550 h1         9 MOL       0.042533
    159 H72        -11.7520    -7.0330   -21.9890 h1         9 MOL       0.042533
    160 H73        -13.5760    -8.4570   -20.2470 h1         9 MOL       0.042533
    161 H74        -13.0120    -8.9180   -21.8930 h1         9 MOL       0.042533
    162 H75        -15.3590    -8.8640   -22.7140 h1         9 MOL       0.043033
    163 H76        -15.9290    -8.4140   -21.0690 h1         9 MOL       0.043033
    164 H77        -16.6440   -10.6930   -22.6670 h1         9 MOL       0.043700
    165 H78        -17.2200   -10.2870   -21.0120 h1         9 MOL       0.043700
    166 H79        -16.3000   -12.4620   -20.1720 h1         9 MOL       0.043033
    167 H80        -15.7240   -12.8510   -21.8300 h1         9 MOL       0.043033
    168 H81        -17.5480   -14.3840   -20.1950 h1         9 MOL       0.032700
    169 H82        -16.9680   -14.7370   -21.8550 h1         9 MOL       0.032700
    170 H83         -8.2070    14.9160   -21.5640 h1         9 MOL       0.064533
    171 H84         -7.3010    15.5040   -23.0020 h1         9 MOL       0.064533
    172 H85         -6.3370    17.3510   -21.6900 hc         9 MOL       0.044867
    173 H86         -7.2260    16.7870   -20.2250 hc         9 MOL       0.044867
    174 H87         -9.3580    16.8880   -21.4810 hc         9 MOL       0.043867
    175 H88         -8.4820    17.4420   -22.9410 hc         9 MOL       0.043867
    176 H89         -7.8300    19.5220   -21.7740 hc         9 MOL       0.040700
    177 H90         -8.6990    18.9670   -20.3000 hc         9 MOL       0.040700
    178 H91        -10.7800    18.6920   -21.6260 hc         9 MOL       0.040867
    179 H92         -9.9200    19.2360   -23.1010 hc         9 MOL       0.040867
    180 H93         -9.5760    21.4690   -22.0910 hc         9 MOL       0.040033
    181 H94        -10.4360    20.9320   -20.6030 hc         9 MOL       0.040033
    182 H95        -12.4170    20.3170   -21.9680 hc         9 MOL       0.040367
    183 H96        -11.5640    20.8430   -23.4540 hc         9 MOL       0.040367
    184 H97        -11.4750    23.1610   -22.5980 hc         9 MOL       0.039700
    185 H98        -12.3280    22.6450   -21.0990 hc         9 MOL       0.039700
    186 H99        -14.2170    21.7800   -22.4700 hc         9 MOL       0.041700
    187 H100       -13.3690    22.2840   -23.9680 hc         9 MOL       0.041700
    188 H101       -13.4760    24.6510   -23.2470 hc         9 MOL       0.040033
    189 H102       -14.3230    24.1580   -21.7390 hc         9 MOL       0.040033
    190 H103       -16.1280    23.1110   -23.0900 hc         9 MOL       0.054867
    191 H104       -15.2860    23.5920   -24.6000 hc         9 MOL       0.054867
    192 H105       -15.5110    25.9790   -23.9800 h1         9 MOL       0.027200
    193 H106       -16.3510    25.5100   -22.4590 h1         9 MOL       0.027200
    194 H107       -17.4240    27.0770   -24.7560 h1         9 MOL       0.040867
    195 H108       -18.2290    26.6650   -23.2020 h1         9 MOL       0.040867
    196 H109       -19.9330    25.4140   -24.3910 h1         9 MOL       0.042533
    197 H110       -19.1460    25.8160   -25.9690 h1         9 MOL       0.042533
    198 H111       -21.7350    26.7830   -24.8290 h1         9 MOL       0.042533
    199 H112       -21.0430    27.1520   -26.4580 h1         9 MOL       0.042533
    200 H113       -20.6920    29.4310   -25.7900 h1         9 MOL       0.043033
    201 H114       -21.3510    29.0470   -24.1510 h1         9 MOL       0.043033
    202 H115       -22.6200    30.7650   -26.2510 h1         9 MOL       0.043700
    203 H116       -23.1630    30.3940   -24.5640 h1         9 MOL       0.043700
    204 H117       -24.9500    29.0370   -25.4080 h1         9 MOL       0.043033
    205 H118       -24.4620    29.3980   -27.1010 h1         9 MOL       0.043033
    206 H119       -26.9310    30.0030   -25.6490 h1         9 MOL       0.032700
    207 H120       -26.5630    30.3560   -27.3770 h1         9 MOL       0.032700
    208 N3         -19.0160   -16.3510   -21.2700 n          9 MOL      -0.571900
    209 H121       -19.9480   -14.4980   -21.0160 h1         9 MOL       0.076367
    210 H122       -19.3660   -14.8430   -22.6700 h1         9 MOL       0.076367
    211 C69        -20.0300   -17.2140   -21.4510 c          9 MOL       0.658100
    212 H123       -18.1580   -16.6890   -20.8980 hn         9 MOL       0.307833
    213 O17        -21.1230   -16.8520   -21.9110 o          9 MOL      -0.605100
    214 C70        -19.8380   -18.6670   -21.0880 c3         9 MOL      -0.159400
    215 C71        -21.1590   -19.4480   -21.2640 c3         9 MOL       0.142400
    216 H124       -19.0510   -19.0900   -21.7330 hc         9 MOL       0.076867
    217 H129       -19.4680   -18.7320   -20.0530 hc         9 MOL       0.076867
    218 O18        -20.9670   -20.8310   -20.9260 os         9 MOL      -0.436600
    219 H130       -21.9270   -19.0120   -20.6100 h1         9 MOL       0.048700
    220 H131       -21.4850   -19.3690   -22.3110 h1         9 MOL       0.048700
    221 C72        -22.1940   -21.5160   -21.1100 c3         9 MOL       0.130400
    222 C73        -21.9880   -23.0010   -20.7700 c3         9 MOL       0.129400
    223 H132       -22.9620   -21.0830   -20.4490 h1         9 MOL       0.043700
    224 H133       -22.5140   -21.4180   -22.1590 h1         9 MOL       0.043700
    225 O19        -23.2020   -23.7130   -20.9590 os         9 MOL      -0.429267
    226 H133       -21.2170   -23.4210   -21.4340 h1         9 MOL       0.041867
    227 H134       -21.6630   -23.1010   -19.7230 h1         9 MOL       0.041867
    228 C74        -22.9480   -25.0780   -20.6690 c3         9 MOL       0.130400
    229 C75        -24.2220   -25.9130   -20.9030 c3         9 MOL       0.129067
    230 H135       -22.1500   -25.4420   -21.3350 h1         9 MOL       0.042533
    231 H136       -22.6230   -25.1780   -19.6210 h1         9 MOL       0.042533
    232 O20        -23.9320   -27.2760   -20.6350 os         9 MOL      -0.427933
    233 H137       -25.0320   -25.5670   -20.2410 h1         9 MOL       0.043867
    234 H138       -24.5370   -25.8110   -21.9530 h1         9 MOL       0.043867
    235 C76        -25.0850   -28.0570   -20.9080 c3         9 MOL       0.120067
    236 C77        -24.7440   -29.5280   -20.6830 c3         9 MOL       0.127733
    237 H139       -25.9090   -27.7570   -20.2480 h1         9 MOL       0.041200
    238 H140       -25.3810   -27.9010   -21.9560 h1         9 MOL       0.041200
    239 O21        -25.8860   -30.3400   -20.9930 os         9 MOL      -0.431600
    240 H141       -23.9200   -29.7950   -21.3640 h1         9 MOL       0.052200
    241 H142       -24.4330   -29.7000   -19.6400 h1         9 MOL       0.052200
    242 C78        -25.5010   -31.7220   -20.9810 c3         9 MOL       0.103733
    243 C79        -26.7080   -32.6130   -21.4750 c3         9 MOL       0.196467
    244 H143       -24.6640   -31.8410   -21.6840 h1         9 MOL       0.048367
    245 H144       -25.1790   -32.0220   -19.9720 h1         9 MOL       0.048367
    246 N4         -26.3800   -34.0840   -21.6080 nh         9 MOL      -0.730267
    247 H145       -27.5490   -32.4910   -20.7750 h1         9 MOL       0.082533
    248 H146       -27.0080   -32.2410   -22.4620 h1         9 MOL       0.082533
    249 H147       -26.9190   -34.7020   -21.0000 hn         9 MOL       0.438800
    250 N5          26.0450    -4.4020   -15.8400 n          9 MOL      -0.571900
    251 H148        24.3610    -4.8420   -17.0740 h1         9 MOL       0.076367
    252 H149        23.9830    -4.6130   -15.3490 h1         9 MOL       0.076367
    253 C80         26.6090    -5.6320   -15.5220 c          9 MOL       0.658100
    254 H150        26.6390    -3.6110   -15.8290 hn         9 MOL       0.307833
    255 O22         25.9310    -6.6700   -15.5100 o          9 MOL      -0.605100
    256 N6         -28.5720    31.8180   -26.5080 n          9 MOL      -0.571900
    257 H151       -26.7920    32.7950   -26.9020 h1         9 MOL       0.076367
    258 H152       -27.1170    32.4180   -25.1870 h1         9 MOL       0.076367
    259 C81        -29.4300    32.8340   -26.6000 c          9 MOL       0.658100
    260 H153       -28.9020    30.8880   -26.6350 hn         9 MOL       0.307833
    261 O23        -29.0420    33.9960   -26.4410 o          9 MOL      -0.605100
    262 C82        -30.8840    32.5450   -26.8790 c3         9 MOL      -0.159400
    263 C83        -31.7220    33.8230   -27.0010 c3         9 MOL       0.142400
    264 H154       -31.2710    31.9180   -26.0620 hc         9 MOL       0.076867
    265 H155       -30.9550    31.9410   -27.7960 hc         9 MOL       0.076867
    266 O24        -33.0810    33.4180   -27.2350 os         9 MOL      -0.436600
    267 H156       -31.3540    34.4340   -27.8380 h1         9 MOL       0.048700
    268 H157       -31.6570    34.3980   -26.0660 h1         9 MOL       0.048700
    269 C84        -33.9220    34.4980   -27.3540 c3         9 MOL       0.130400
    270 C85        -35.2530    33.9190   -27.5470 c3         9 MOL       0.129400
    271 H158       -33.6460    35.1160   -28.2200 h1         9 MOL       0.043700
    272 H159       -33.9110    35.1060   -26.4380 h1         9 MOL       0.043700
    273 O25        -36.1110    34.9720   -27.6690 os         9 MOL      -0.429267
    274 H160       -35.5240    33.3020   -26.6760 h1         9 MOL       0.041867
    275 H161       -35.2690    33.3030   -28.4610 h1         9 MOL       0.041867
    276 C86        -37.3270    34.4780   -27.8280 c3         9 MOL       0.130400
    277 C87        -38.1850    35.6000   -27.9740 c3         9 MOL       0.129067
    278 H162       -37.6280    33.8900   -26.9500 h1         9 MOL       0.042533
    279 H163       -37.3780    33.8550   -28.7330 h1         9 MOL       0.042533
    280 O26        -39.3420    34.9600   -28.1250 os         9 MOL      -0.427933
    281 H164       -37.9170    36.1840   -28.8670 h1         9 MOL       0.043867
    282 H165       -38.1760    36.2330   -27.0740 h1         9 MOL       0.043867
    283 C88        -40.3830    35.7660   -28.3300 c3         9 MOL       0.120067
    284 C89        -41.4250    34.8220   -28.4700 c3         9 MOL       0.127733
    285 H166       -40.2750    36.3490   -29.2520 h1         9 MOL       0.041200
    286 H167       -40.5650    36.4310   -27.4750 h1         9 MOL       0.041200
    287 O27        -42.4300    35.6260   -28.7140 os         9 MOL      -0.431600
    288 H168       -41.5440    34.2530   -27.5350 h1         9 MOL       0.052200
    289 H169       -41.2470    34.1490   -29.3070 h1         9 MOL       0.052200
    290 C90        -43.6290    34.9930   -28.7970 c3         9 MOL       0.103733
    291 C91        -44.5540    36.0950   -29.1580 c3         9 MOL       0.196467
    292 H170       -43.6090    34.2280   -29.5940 h1         9 MOL       0.048367
    293 H171       -43.9040    34.5360   -27.8330 h1         9 MOL       0.048367
    294 N7         -45.8440    35.5400   -29.3130 nh         9 MOL      -0.730267
    295 H172       -44.5290    36.8730   -28.4110 h1         9 MOL       0.082533
    296 H173       -44.2120    36.5040   -30.1160 h1         9 MOL       0.082533
    297 H174       -45.9250    34.8440   -30.0080 hn         9 MOL       0.438800
    298 C92        -47.0440    35.9650   -28.6780 ca         9 MOL       0.296933
    299 C93        -47.2480    36.8570   -27.4410 ca         9 MOL      -0.271533
    300 C94        -48.4580    37.1810   -27.0760 ca         9 MOL       0.034000
    301 H175       -48.6270    37.7860   -26.2160 ha         9 MOL       0.198000
    302 C95        -49.5020    36.6940   -27.7740 ca         9 MOL      -0.250200
    303 C96        -49.3860    35.8960   -28.8190 ca         9 MOL       0.004667
    304 H176       -50.2500    35.5460   -29.3090 ha         9 MOL       0.178333
    305 C97        -48.1240    35.5260   -29.2860 ca         9 MOL      -0.233000
    306 H177       -48.0390    34.9200   -30.1290 ha         9 MOL       0.155000
    307 N8         -50.6310    36.9840   -27.4090 no         9 MOL       0.326867
    308 O28        -51.5940    36.4540   -28.0500 o          9 MOL      -0.207333
    309 O29        -50.8590    37.7200   -26.5250 o          9 MOL      -0.207333
    310 N9         -46.3250    37.3080   -26.6300 no         9 MOL       0.318867
    311 O30        -46.6180    38.1650   -25.7110 o          9 MOL      -0.204333
    312 O31        -45.2580    36.8340   -26.6390 o          9 MOL      -0.204333
    313 C98        -25.4580   -34.7370   -22.5710 ca         9 MOL       0.296933
    314 C99        -25.4460   -36.1710   -22.4440 ca         9 MOL      -0.233000
    315 H178       -26.0520   -36.6400   -21.7390 ha         9 MOL       0.155000
    316 C100       -24.6790   -36.8910   -23.2260 ca         9 MOL       0.004667
    317 H179       -24.6680   -37.9410   -23.1500 ha         9 MOL       0.178333
    318 C101       -23.8530   -36.2440   -24.1690 ca         9 MOL      -0.250200
    319 C102       -23.8110   -34.9650   -24.3020 ca         9 MOL       0.034000
    320 H180       -23.1700   -34.5220   -25.0350 ha         9 MOL       0.198000
    321 C103       -24.6360   -34.1850   -23.5200 ca         9 MOL      -0.271533
    322 N10        -23.1700   -36.9340   -24.8820 no         9 MOL       0.326867
    323 O32        -22.2580   -36.4630   -25.7120 o          9 MOL      -0.207333
    324 O33        -23.3350   -38.0740   -24.7990 o          9 MOL      -0.207333
    325 N11        -24.5430   -32.9150   -23.8190 no         9 MOL       0.318867
    326 O34        -25.5950   -32.2160   -23.9760 o          9 MOL      -0.204333
    327 O35        -23.5130   -32.3510   -23.8120 o          9 MOL      -0.204333
    328 C104        28.1650    -5.7860   -15.1440 c3         9 MOL      -0.159400
    329 C105        28.5940    -7.3280   -14.7530 c3         9 MOL       0.142400
    330 H181        28.3850    -5.1010   -14.3080 hc         9 MOL       0.076867
    331 H182        28.7630    -5.4290   -16.0000 hc         9 MOL       0.076867
    332 O36         30.0480    -7.5350   -14.3820 os         9 MOL      -0.436600
    333 H183        27.9810    -7.6490   -13.8990 h1         9 MOL       0.048700
    334 H184        28.3690    -7.9770   -15.6120 h1         9 MOL       0.048700
    335 C106        30.2580    -8.9620   -14.0620 c3         9 MOL       0.130400
    336 C107        31.7730    -9.2880   -13.6340 c3         9 MOL       0.129400
    337 H185        29.5870    -9.2350   -13.2320 h1         9 MOL       0.043700
    338 H186        29.9970    -9.5620   -14.9490 h1         9 MOL       0.043700
    339 O37         31.9630   -10.7140   -13.3170 os         9 MOL      -0.429267
    340 H187        32.0340    -8.6930   -12.7440 h1         9 MOL       0.041867
    341 H188        32.4510    -9.0170   -14.4600 h1         9 MOL       0.041867
    342 C108        33.3540   -10.9320   -12.9240 c3         9 MOL       0.130400
    343 C109        33.6680   -12.4470   -12.5630 c3         9 MOL       0.129067
    344 H189        34.0040   -10.6200   -13.7560 h1         9 MOL       0.042533
    345 H190        33.5700   -10.3030   -12.0470 h1         9 MOL       0.042533
    346 O38         35.0570   -12.5560   -12.1860 os         9 MOL      -0.427933
    347 H191        33.4770   -13.0910   -13.4370 h1         9 MOL       0.043867
    348 H192        33.0370   -12.7730   -11.7210 h1         9 MOL       0.043867
    349 C110        35.4250   -13.8800   -11.8520 c3         9 MOL       0.120067
    350 C111        36.8670   -13.8240   -11.4790 c3         9 MOL       0.127733
    351 H193        34.8350   -14.2450   -10.9990 h1         9 MOL       0.041200
    352 H194        35.2880   -14.5510   -12.7120 h1         9 MOL       0.041200
    353 O39         37.1850   -15.0560   -11.1750 os         9 MOL      -0.431600
    354 H195        37.4740   -13.4810   -12.3210 h1         9 MOL       0.052200
    355 H196        37.0160   -13.1770   -10.6100 h1         9 MOL       0.052200
    356 C112        38.4770   -15.1450   -10.8030 c3         9 MOL       0.103733
    357 C113        38.5200   -16.5750   -10.5410 c3         9 MOL       0.196467
    358 H197        39.1590   -14.8470   -11.6240 h1         9 MOL       0.048367
    359 H198        38.6790   -14.5460    -9.8930 h1         9 MOL       0.048367
    360 N12         39.7390   -17.0180   -10.1210 nh         9 MOL      -0.730267
    361 H199        37.7710   -16.8200    -9.7730 h1         9 MOL       0.082533
    362 H200        38.2430   -17.1140   -11.4600 h1         9 MOL       0.082533
    363 H201        40.4590   -16.3490   -10.0500 hn         9 MOL       0.438800
    364 C114        40.0170   -18.3540    -9.7750 ca         9 MOL       0.296933
    365 C115        39.0800   -19.6050    -9.8070 ca         9 MOL      -0.271533
    366 C116        39.5770   -20.7540    -9.4310 ca         9 MOL       0.034000
    367 H202        38.9770   -21.6330    -9.4370 ha         9 MOL       0.198000
    368 C117        40.8750   -20.8240    -9.0270 ca         9 MOL      -0.250200
    369 C118        41.7010   -19.7970    -8.9840 ca         9 MOL       0.004667
    370 H203        42.7090   -19.9350    -8.6540 ha         9 MOL       0.178333
    371 C119        41.2590   -18.5280    -9.3700 ca         9 MOL      -0.233000
    372 H204        41.9120   -17.7170    -9.3350 ha         9 MOL       0.155000
    373 N13         41.3080   -21.9140    -8.6780 no         9 MOL       0.326867
    374 O40         42.5250   -21.9580    -8.2980 o          9 MOL      -0.207333
    375 O41         40.6650   -22.8920    -8.6770 o          9 MOL      -0.207333
    376 N14         37.7620   -19.6980   -10.1840 no         9 MOL       0.318867
    377 O42         37.1610   -20.8520   -10.1500 o          9 MOL      -0.204333
    378 O43         37.1490   -18.7720   -10.5400 o          9 MOL      -0.204333
@<TRIPOS>BOND
     1     1    10 1   
     2     1    13 1   
     3     1    91 1   
     4     2    11 1   
     5     2    12 1   
     6     2    92 1   
     7     3    14 1   
     8     3    15 1   
     9     3    93 1   
    10     4     5 ar  
    11     4     9 ar  
    12     4    15 1   
    13     5     6 ar  
    14     5    88 1   
    15     6     7 ar  
    16     6    11 1   
    17     7     8 ar  
    18     7    89 1   
    19     8     9 ar  
    20     8    10 1   
    21     9    90 1   
    22    10    73 2   
    23    11    74 2   
    24    12    35 1   
    25    12   132 1   
    26    12   133 1   
    27    13    54 1   
    28    13   170 1   
    29    13   171 1   
    30    14    16 1   
    31    14    94 1   
    32    14    95 1   
    33    15    75 2   
    34    16    17 1   
    35    16    96 1   
    36    16    97 1   
    37    17    18 1   
    38    17    98 1   
    39    17    99 1   
    40    18    19 1   
    41    18   100 1   
    42    18   101 1   
    43    19    20 1   
    44    19   102 1   
    45    19   103 1   
    46    20    21 1   
    47    20   104 1   
    48    20   105 1   
    49    21    22 1   
    50    21   106 1   
    51    21   107 1   
    52    22    23 1   
    53    22   108 1   
    54    22   109 1   
    55    23    24 1   
    56    23   110 1   
    57    23   111 1   
    58    24    25 1   
    59    24   112 1   
    60    24   113 1   
    61    25    26 1   
    62    25   114 1   
    63    25   115 1   
    64    26    76 1   
    65    26   116 1   
    66    26   117 1   
    67    27    28 1   
    68    27    76 1   
    69    27   118 1   
    70    27   119 1   
    71    28    77 1   
    72    28   120 1   
    73    28   121 1   
    74    29    30 1   
    75    29    77 1   
    76    29   122 1   
    77    29   123 1   
    78    30    78 1   
    79    30   124 1   
    80    30   125 1   
    81    31    32 1   
    82    31    78 1   
    83    31   126 1   
    84    31   127 1   
    85    32    79 1   
    86    32   128 1   
    87    32   129 1   
    88    33    34 1   
    89    33    79 1   
    90    33   130 1   
    91    33   131 1   
    92    34   250 1   
    93    34   251 1   
    94    34   252 1   
    95    35    36 1   
    96    35   134 1   
    97    35   135 1   
    98    36    37 1   
    99    36   136 1   
   100    36   137 1   
   101    37    38 1   
   102    37   138 1   
   103    37   139 1   
   104    38    39 1   
   105    38   140 1   
   106    38   141 1   
   107    39    40 1   
   108    39   142 1   
   109    39   143 1   
   110    40    41 1   
   111    40   144 1   
   112    40   145 1   
   113    41    42 1   
   114    41   146 1   
   115    41   147 1   
   116    42    43 1   
   117    42   148 1   
   118    42   149 1   
   119    43    44 1   
   120    43   150 1   
   121    43   151 1   
   122    44    45 1   
   123    44   152 1   
   124    44   153 1   
   125    45    80 1   
   126    45   154 1   
   127    45   155 1   
   128    46    47 1   
   129    46    80 1   
   130    46   156 1   
   131    46   157 1   
   132    47    81 1   
   133    47   158 1   
   134    47   159 1   
   135    48    49 1   
   136    48    81 1   
   137    48   160 1   
   138    48   161 1   
   139    49    82 1   
   140    49   162 1   
   141    49   163 1   
   142    50    51 1   
   143    50    82 1   
   144    50   164 1   
   145    50   165 1   
   146    51    83 1   
   147    51   166 1   
   148    51   167 1   
   149    52    53 1   
   150    52    83 1   
   151    52   168 1   
   152    52   169 1   
   153    53   208 1   
   154    53   209 1   
   155    53   210 1   
   156    54    55 1   
   157    54   172 1   
   158    54   173 1   
   159    55    56 1   
   160    55   174 1   
   161    55   175 1   
   162    56    57 1   
   163    56   176 1   
   164    56   177 1   
   165    57    58 1   
   166    57   178 1   
   167    57   179 1   
   168    58    59 1   
   169    58   180 1   
   170    58   181 1   
   171    59    60 1   
   172    59   182 1   
   173    59   183 1   
   174    60    61 1   
   175    60   184 1   
   176    60   185 1   
   177    61    62 1   
   178    61   186 1   
   179    61   187 1   
   180    62    63 1   
   181    62   188 1   
   182    62   189 1   
   183    63    64 1   
   184    63   190 1   
   185    63   191 1   
   186    64    84 1   
   187    64   192 1   
   188    64   193 1   
   189    65    66 1   
   190    65    84 1   
   191    65   194 1   
   192    65   195 1   
   193    66    85 1   
   194    66   196 1   
   195    66   197 1   
   196    67    68 1   
   197    67    85 1   
   198    67   198 1   
   199    67   199 1   
   200    68    86 1   
   201    68   200 1   
   202    68   201 1   
   203    69    70 1   
   204    69    86 1   
   205    69   202 1   
   206    69   203 1   
   207    70    87 1   
   208    70   204 1   
   209    70   205 1   
   210    71    72 1   
   211    71    87 1   
   212    71   206 1   
   213    71   207 1   
   214    72   256 1   
   215    72   257 1   
   216    72   258 1   
   217   208   211 1   
   218   208   212 1   
   219   211   213 2   
   220   211   214 1   
   221   214   215 1   
   222   214   216 1   
   223   214   217 1   
   224   215   218 1   
   225   215   219 1   
   226   215   220 1   
   227   218   221 1   
   228   221   222 1   
   229   221   223 1   
   230   221   224 1   
   231   222   225 1   
   232   222   226 1   
   233   222   227 1   
   234   225   228 1   
   235   228   229 1   
   236   228   230 1   
   237   228   231 1   
   238   229   232 1   
   239   229   233 1   
   240   229   234 1   
   241   232   235 1   
   242   235   236 1   
   243   235   237 1   
   244   235   238 1   
   245   236   239 1   
   246   236   240 1   
   247   236   241 1   
   248   239   242 1   
   249   242   243 1   
   250   242   244 1   
   251   242   245 1   
   252   243   246 1   
   253   243   247 1   
   254   243   248 1   
   255   246   249 1   
   256   246   313 1   
   257   250   253 1   
   258   250   254 1   
   259   253   255 2   
   260   253   328 1   
   261   256   259 1   
   262   256   260 1   
   263   259   261 2   
   264   259   262 1   
   265   262   263 1   
   266   262   264 1   
   267   262   265 1   
   268   263   266 1   
   269   263   267 1   
   270   263   268 1   
   271   266   269 1   
   272   269   270 1   
   273   269   271 1   
   274   269   272 1   
   275   270   273 1   
   276   270   274 1   
   277   270   275 1   
   278   273   276 1   
   279   276   277 1   
   280   276   278 1   
   281   276   279 1   
   282   277   280 1   
   283   277   281 1   
   284   277   282 1   
   285   280   283 1   
   286   283   284 1   
   287   283   285 1   
   288   283   286 1   
   289   284   287 1   
   290   284   288 1   
   291   284   289 1   
   292   287   290 1   
   293   290   291 1   
   294   290   292 1   
   295   290   293 1   
   296   291   294 1   
   297   291   295 1   
   298   291   296 1   
   299   294   297 1   
   300   294   298 1   
   301   298   299 ar  
   302   298   305 ar  
   303   299   300 ar  
   304   299   310 1   
   305   300   301 1   
   306   300   302 ar  
   307   302   303 ar  
   308   302   307 1   
   309   303   304 1   
   310   303   305 ar  
   311   305   306 1   
   312   307   308 1   
   313   307   309 1   
   314   310   311 1   
   315   310   312 1   
   316   313   314 ar  
   317   313   321 ar  
   318   314   315 1   
   319   314   316 ar  
   320   316   317 1   
   321   316   318 ar  
   322   318   319 ar  
   323   318   322 1   
   324   319   320 1   
   325   319   321 ar  
   326   321   325 1   
   327   322   323 1   
   328   322   324 1   
   329   325   326 1   
   330   325   327 1   
   331   328   329 1   
   332   328   330 1   
   333   328   331 1   
   334   329   332 1   
   335   329   333 1   
   336   329   334 1   
   337   332   335 1   
   338   335   336 1   
   339   335   337 1   
   340   335   338 1   
   341   336   339 1   
   342   336   340 1   
   343   336   341 1   
   344   339   342 1   
   345   342   343 1   
   346   342   344 1   
   347   342   345 1   
   348   343   346 1   
   349   343   347 1   
   350   343   348 1   
   351   346   349 1   
   352   349   350 1   
   353   349   351 1   
   354   349   352 1   
   355   350   353 1   
   356   350   354 1   
   357   350   355 1   
   358   353   356 1   
   359   356   357 1   
   360   356   358 1   
   361   356   359 1   
   362   357   360 1   
   363   357   361 1   
   364   357   362 1   
   365   360   363 1   
   366   360   364 1   
   367   364   365 ar  
   368   364   371 ar  
   369   365   366 ar  
   370   365   376 1   
   371   366   367 1   
   372   366   368 ar  
   373   368   369 ar  
   374   368   373 1   
   375   369   370 1   
   376   369   371 ar  
   377   371   372 1   
   378   373   374 1   
   379   373   375 1   
   380   376   377 1   
   381   376   378 1   
@<TRIPOS>SUBSTRUCTURE
     1 MOL         1 TEMP              0 ****  ****    0 ROOT
