@<TRIPOS>MOLECULE
MOL
  219   219     1     0     0
SMALL
bcc


@<TRIPOS>ATOM
      1 N           -6.1690    14.5670   -21.5580 n          9 MOL      -0.560900
      2 N1          -2.7320     9.0770   -21.5000 n          9 MOL      -0.560900
      3 N2           0.8010    12.6780   -21.6220 n          9 MOL      -0.560900
      4 C           -1.5420    13.1700   -21.3390 ca         9 MOL      -0.155933
      5 C1          -1.9160    11.8290   -21.1700 ca         9 MOL      -0.040333
      6 C2          -3.2540    11.4250   -21.2850 ca         9 MOL      -0.155933
      7 C3          -4.2310    12.3970   -21.5390 ca         9 MOL      -0.040333
      8 C4          -3.8890    13.7500   -21.6990 ca         9 MOL      -0.155933
      9 C5          -2.5400    14.1190   -21.5970 ca         9 MOL      -0.040333
     10 C6          -4.9320    14.7970   -22.0120 c          9 MOL       0.667700
     11 C7          -3.6500     9.9770   -21.1250 c          9 MOL       0.667700
     12 C8          -2.9410     7.6270   -21.3400 c3         9 MOL       0.083000
     13 C9          -7.2830    15.4020   -21.9070 c3         9 MOL       0.083000
     14 C10          2.2100    12.9500   -21.5540 c3         9 MOL       0.083000
     15 C11         -0.0960    13.5950   -21.2400 c          9 MOL       0.667700
     16 C12          2.9510    11.6330   -21.2910 c3         9 MOL      -0.105400
     17 C13          4.4620    11.8810   -21.2140 c3         9 MOL      -0.077400
     18 C14          5.1500    10.5370   -20.9430 c3         9 MOL      -0.078733
     19 C15          6.6700    10.7160   -20.8460 c3         9 MOL      -0.079400
     20 C16          7.2870     9.3430   -20.5680 c3         9 MOL      -0.079067
     21 C17          8.8100     9.4550   -20.4500 c3         9 MOL      -0.079400
     22 C18          9.3640     8.0560   -20.1650 c3         9 MOL      -0.079400
     23 C19         10.8910     8.1050   -20.0290 c3         9 MOL      -0.078400
     24 C20         11.3960     6.6880   -19.7400 c3         9 MOL      -0.078400
     25 C21         12.9200     6.7020   -19.5910 c3         9 MOL      -0.084400
     26 C22         13.3970     5.2730   -19.2980 c3         9 MOL       0.133400
     27 C23         15.2380     3.9690   -18.8810 c3         9 MOL       0.128400
     28 C24         16.7040     3.9750   -18.7260 c3         9 MOL       0.130400
     29 C25         18.2860     2.4760   -18.2900 c3         9 MOL       0.130400
     30 C26         18.3650     1.0800   -18.0350 c3         9 MOL       0.129400
     31 C27         19.9850    -0.3500   -17.6040 c3         9 MOL       0.130400
     32 C28         21.4040    -0.2610   -17.4610 c3         9 MOL       0.128400
     33 C29         23.1360    -1.5720   -17.0170 c3         9 MOL       0.094400
     34 C30         23.3800    -2.9960   -16.7120 c3         9 MOL       0.125400
     35 C31         -4.2790     7.1210   -21.9340 c3         9 MOL      -0.105400
     36 C32         -4.3900     5.6260   -21.6300 c3         9 MOL      -0.077400
     37 C33         -5.7230     5.0870   -22.1480 c3         9 MOL      -0.078733
     38 C34         -5.8180     3.6020   -21.7800 c3         9 MOL      -0.079400
     39 C35         -7.1610     3.0330   -22.2410 c3         9 MOL      -0.079067
     40 C36         -7.2310     1.5630   -21.8170 c3         9 MOL      -0.079400
     41 C37         -8.5780     0.9670   -22.2320 c3         9 MOL      -0.079400
     42 C38         -8.6260    -0.4950   -21.7660 c3         9 MOL      -0.078400
     43 C39         -9.9720    -1.1220   -22.1440 c3         9 MOL      -0.078400
     44 C40         -9.9900    -2.5740   -21.6480 c3         9 MOL      -0.084400
     45 C41        -11.3330    -3.2290   -22.0000 c3         9 MOL       0.133400
     46 C42        -12.5350    -5.1890   -21.8190 c3         9 MOL       0.128400
     47 C43        -12.4810    -6.5700   -21.3070 c3         9 MOL       0.130400
     48 C44        -13.8100    -8.3420   -21.2620 c3         9 MOL       0.130400
     49 C45        -15.1130    -8.6960   -21.7040 c3         9 MOL       0.129400
     50 C46        -16.3540   -10.5160   -21.6370 c3         9 MOL       0.130400
     51 C47        -16.1840   -11.8420   -21.1290 c3         9 MOL       0.128400
     52 C48        -17.3170   -13.7430   -20.9930 c3         9 MOL       0.094400
     53 C49        -18.6460   -14.2510   -21.3890 c3         9 MOL       0.125400
     54 C50         -7.2410    16.8200   -21.3270 c3         9 MOL      -0.105400
     55 C51         -8.5170    17.4650   -21.8650 c3         9 MOL      -0.077400
     56 C52         -8.7080    18.9090   -21.4190 c3         9 MOL      -0.078733
     57 C53        -10.0330    19.3380   -22.0600 c3         9 MOL      -0.079400
     58 C54        -10.4260    20.7770   -21.7320 c3         9 MOL      -0.079067
     59 C55        -11.7610    21.0060   -22.4500 c3         9 MOL      -0.079400
     60 C56        -12.3100    22.4130   -22.2200 c3         9 MOL      -0.079400
     61 C57        -13.6410    22.4880   -22.9880 c3         9 MOL      -0.078400
     62 C58        -14.3100    23.8570   -22.8350 c3         9 MOL      -0.078400
     63 C59        -15.6250    23.8150   -23.6320 c3         9 MOL      -0.084400
     64 C60        -16.3700    25.1530   -23.5260 c3         9 MOL       0.133400
     65 C61        -18.2980    26.2290   -24.1990 c3         9 MOL       0.128400
     66 C62        -19.5380    26.0590   -24.9790 c3         9 MOL       0.130400
     67 C63        -21.3180    27.3010   -25.4510 c3         9 MOL       0.130400
     68 C64        -21.7710    28.6080   -25.1400 c3         9 MOL       0.129400
     69 C65        -23.5400    29.8310   -25.5720 c3         9 MOL       0.130400
     70 C66        -24.7580    29.6680   -26.2970 c3         9 MOL       0.128400
     71 C67        -26.5910    30.8450   -26.7340 c3         9 MOL       0.094400
     72 C68        -27.1200    32.1810   -26.3940 c3         9 MOL       0.125400
     73 O           -4.6420    15.8120   -22.6470 o          9 MOL      -0.594100
     74 O1          -4.7580     9.6600   -20.6910 o          9 MOL      -0.594100
     75 O2           0.2190    14.7220   -20.8560 o          9 MOL      -0.594100
     76 O3          14.8210     5.2600   -19.1500 os         9 MOL      -0.427600
     77 O4          16.9930     2.6590   -18.4640 os         9 MOL      -0.430600
     78 O5          19.6690     0.9160   -17.8620 os         9 MOL      -0.430600
     79 O6          21.7710    -1.5000   -17.1980 os         9 MOL      -0.425600
     80 O7          24.7400    -3.1720   -16.5020 oh         9 MOL      -0.592800
     81 O8         -11.3310    -4.5800   -21.5210 os         9 MOL      -0.427600
     82 O9         -13.7050    -7.0870   -21.6490 os         9 MOL      -0.430600
     83 O10        -15.1900    -9.9620   -21.3110 os         9 MOL      -0.430600
     84 O11        -17.3210   -12.4370   -21.4320 os         9 MOL      -0.425600
     85 O12        -18.7500   -15.5730   -20.9800 oh         9 MOL      -0.592800
     86 O13        -17.5880    25.0520   -24.2790 os         9 MOL      -0.427600
     87 O14        -20.1610    27.2670   -24.8240 os         9 MOL      -0.430600
     88 O15        -22.9430    28.6570   -25.7590 os         9 MOL      -0.430600
     89 O16        -25.3640    30.8230   -26.1130 os         9 MOL      -0.425600
     90 O17        -28.3750    32.3160   -26.9630 oh         9 MOL      -0.592800
     91 H253        -1.1590    11.0940   -20.9300 ha         9 MOL       0.162333
     92 H254        -5.2660    12.0880   -21.6260 ha         9 MOL       0.162333
     93 H255        -2.2610    15.1590   -21.7260 ha         9 MOL       0.162333
     94 H250        -6.2910    13.8250   -20.8770 hn         9 MOL       0.306167
     95 H251        -1.8860     9.4270   -21.9210 hn         9 MOL       0.306167
     96 H252         0.4350    11.8700   -22.1010 hn         9 MOL       0.306167
     97 H6           2.4060    13.6790   -20.7540 h1         9 MOL       0.064867
     98 H7           2.5480    13.3660   -22.5140 h1         9 MOL       0.064867
     99 H8           2.7380    10.9250   -22.1060 hc         9 MOL       0.045033
    100 H9           2.6050    11.2060   -20.3380 hc         9 MOL       0.045033
    101 H10          4.6800    12.5810   -20.3950 hc         9 MOL       0.043533
    102 H11          4.8190    12.3010   -22.1640 hc         9 MOL       0.043533
    103 H12          4.9180     9.8390   -21.7610 hc         9 MOL       0.040867
    104 H13          4.7750    10.1250   -19.9950 hc         9 MOL       0.040867
    105 H14          6.9120    11.4040   -20.0230 hc         9 MOL       0.040867
    106 H15          7.0630    11.1170   -21.7910 hc         9 MOL       0.040867
    107 H16          7.0350     8.6570   -21.3890 hc         9 MOL       0.040033
    108 H17          6.8810     8.9480   -19.6250 hc         9 MOL       0.040033
    109 H18          9.0690    10.1330   -19.6240 hc         9 MOL       0.040200
    110 H19          9.2300     9.8400   -21.3900 hc         9 MOL       0.040200
    111 H20          9.0920     7.3830   -20.9910 hc         9 MOL       0.039700
    112 H21          8.9280     7.6790   -19.2290 hc         9 MOL       0.039700
    113 H22         11.1680     8.7710   -19.2000 hc         9 MOL       0.041867
    114 H23         11.3380     8.4740   -20.9630 hc         9 MOL       0.041867
    115 H24         11.1150     6.0230   -20.5680 hc         9 MOL       0.040200
    116 H25         10.9420     6.3240   -18.8070 hc         9 MOL       0.040200
    117 H26         13.2020     7.3650   -18.7600 hc         9 MOL       0.055033
    118 H27         13.3780     7.0640   -20.5230 hc         9 MOL       0.055033
    119 H28         13.1070     4.6130   -20.1290 h1         9 MOL       0.027700
    120 H29         12.9280     4.9180   -18.3670 h1         9 MOL       0.027700
    121 H30         14.9640     3.3010   -19.7090 h1         9 MOL       0.039700
    122 H31         14.7790     3.6090   -17.9490 h1         9 MOL       0.039700
    123 H32         17.0030     4.6200   -17.8850 h1         9 MOL       0.042533
    124 H33         17.1930     4.3100   -19.6550 h1         9 MOL       0.042533
    125 H34         18.6600     3.0440   -17.4280 h1         9 MOL       0.042367
    126 H35         18.8540     2.7330   -19.1950 h1         9 MOL       0.042367
    127 H36         17.9940     0.5070   -18.8980 h1         9 MOL       0.042700
    128 H37         17.7990     0.8200   -17.1280 h1         9 MOL       0.042700
    129 H38         19.7170    -1.0140   -18.4390 h1         9 MOL       0.042700
    130 H39         19.5220    -0.7010   -16.6690 h1         9 MOL       0.042700
    131 H40         21.6570     0.4130   -16.6300 h1         9 MOL       0.042200
    132 H41         21.8570     0.1000   -18.3950 h1         9 MOL       0.042200
    133 H42         23.4500    -0.9400   -16.1700 h1         9 MOL       0.033700
    134 H43         23.6690    -1.2710   -17.9330 h1         9 MOL       0.033700
    135 H44         23.0440    -3.6130   -17.5570 h1         9 MOL       0.059200
    136 H45         22.8210    -3.2710   -15.8070 h1         9 MOL       0.059200
    137 H46         -2.9670     7.4100   -20.2620 h1         9 MOL       0.064867
    138 H47         -2.1070     7.0800   -21.8010 h1         9 MOL       0.064867
    139 H48         -4.3100     7.2940   -23.0200 hc         9 MOL       0.045033
    140 H49         -5.1190     7.6400   -21.4540 hc         9 MOL       0.045033
    141 H50         -4.3480     5.4820   -20.5410 hc         9 MOL       0.043533
    142 H51         -3.5580     5.0860   -22.1030 hc         9 MOL       0.043533
    143 H52         -5.7840     5.2150   -23.2380 hc         9 MOL       0.040867
    144 H53         -6.5460     5.6330   -21.6660 hc         9 MOL       0.040867
    145 H54         -5.7460     3.5010   -20.6870 hc         9 MOL       0.040867
    146 H55         -4.9960     3.0470   -22.2540 hc         9 MOL       0.040867
    147 H56         -7.2510     3.1160   -23.3340 hc         9 MOL       0.040033
    148 H57         -7.9780     3.5900   -21.7600 hc         9 MOL       0.040033
    149 H58         -7.1320     1.5000   -20.7240 hc         9 MOL       0.040200
    150 H59         -6.4140     1.0020   -22.2920 hc         9 MOL       0.040200
    151 H60         -8.6880     1.0190   -23.3250 hc         9 MOL       0.039700
    152 H61         -9.3900     1.5320   -21.7520 hc         9 MOL       0.039700
    153 H62         -8.5070    -0.5300   -20.6740 hc         9 MOL       0.041867
    154 H63         -7.8120    -1.0600   -22.2410 hc         9 MOL       0.041867
    155 H64        -10.1010    -1.0990   -23.2360 hc         9 MOL       0.040200
    156 H65        -10.7870    -0.5600   -21.6650 hc         9 MOL       0.040200
    157 H66         -9.8540    -2.5850   -20.5570 hc         9 MOL       0.055033
    158 H67         -9.1710    -3.1330   -22.1250 hc         9 MOL       0.055033
    159 H68        -11.4730    -3.2220   -23.0910 h1         9 MOL       0.027700
    160 H69        -12.1510    -2.6700   -21.5210 h1         9 MOL       0.027700
    161 H70        -12.6920    -5.2100   -22.9070 h1         9 MOL       0.039700
    162 H71        -13.3630    -4.6530   -21.3350 h1         9 MOL       0.039700
    163 H72        -12.3430    -6.5740   -20.2140 h1         9 MOL       0.042533
    164 H73        -11.6670    -7.1310   -21.7950 h1         9 MOL       0.042533
    165 H74        -13.7380    -8.4350   -20.1690 h1         9 MOL       0.042367
    166 H75        -13.0570    -8.9760   -21.7500 h1         9 MOL       0.042367
    167 H76        -15.1860    -8.6070   -22.7980 h1         9 MOL       0.042700
    168 H77        -15.8730    -8.0700   -21.2140 h1         9 MOL       0.042700
    169 H78        -16.5030   -10.5340   -22.7270 h1         9 MOL       0.042700
    170 H79        -17.1970   -10.0140   -21.1400 h1         9 MOL       0.042700
    171 H80        -16.0270   -11.8120   -20.0420 h1         9 MOL       0.042200
    172 H81        -15.3340   -12.3310   -21.6240 h1         9 MOL       0.042200
    173 H82        -17.2010   -13.7850   -19.8980 h1         9 MOL       0.033700
    174 H83        -16.5170   -14.3190   -21.4830 h1         9 MOL       0.033700
    175 H84        -18.7540   -14.1830   -22.4800 h1         9 MOL       0.059200
    176 H85        -19.4230   -13.6460   -20.9010 h1         9 MOL       0.059200
    177 H86         -8.2070    14.9160   -21.5640 h1         9 MOL       0.064867
    178 H87         -7.3010    15.5040   -23.0020 h1         9 MOL       0.064867
    179 H88         -6.3520    17.3630   -21.6850 hc         9 MOL       0.045033
    180 H89         -7.2520    16.7960   -20.2280 hc         9 MOL       0.045033
    181 H90         -9.3770    16.8770   -21.5160 hc         9 MOL       0.043533
    182 H91         -8.4860    17.4410   -22.9630 hc         9 MOL       0.043533
    183 H92         -7.8810    19.5360   -21.7790 hc         9 MOL       0.040867
    184 H93         -8.7710    18.9640   -20.3240 hc         9 MOL       0.040867
    185 H94        -10.8270    18.6690   -21.7010 hc         9 MOL       0.040867
    186 H95         -9.9440    19.2390   -23.1510 hc         9 MOL       0.040867
    187 H96         -9.6650    21.4780   -22.1040 hc         9 MOL       0.040033
    188 H97        -10.5500    20.9010   -20.6460 hc         9 MOL       0.040033
    189 H98        -12.4920    20.2760   -22.0760 hc         9 MOL       0.040200
    190 H99        -11.6150    20.8520   -23.5280 hc         9 MOL       0.040200
    191 H100       -11.6030    23.1630   -22.6050 hc         9 MOL       0.039700
    192 H101       -12.4810    22.5790   -21.1460 hc         9 MOL       0.039700
    193 H102       -14.3200    21.7160   -22.5990 hc         9 MOL       0.041867
    194 H103       -13.4500    22.2990   -24.0540 hc         9 MOL       0.041867
    195 H104       -13.6530    24.6440   -23.2340 hc         9 MOL       0.040200
    196 H105       -14.5210    24.0530   -21.7750 hc         9 MOL       0.040200
    197 H106       -16.2620    23.0140   -23.2280 hc         9 MOL       0.055033
    198 H107       -15.4010    23.6050   -24.6880 hc         9 MOL       0.055033
    199 H108       -15.7450    25.9610   -23.9340 h1         9 MOL       0.027700
    200 H109       -16.6030    25.3620   -22.4710 h1         9 MOL       0.027700
    201 H110       -17.7140    27.0590   -24.6180 h1         9 MOL       0.039700
    202 H111       -18.5560    26.4460   -23.1530 h1         9 MOL       0.039700
    203 H112       -20.1490    25.2430   -24.5610 h1         9 MOL       0.042533
    204 H113       -19.3100    25.8620   -26.0390 h1         9 MOL       0.042533
    205 H114       -22.0150    26.5490   -25.0540 h1         9 MOL       0.042367
    206 H115       -21.1970    27.1800   -26.5360 h1         9 MOL       0.042367
    207 H116       -21.0720    29.3600   -25.5340 h1         9 MOL       0.042700
    208 H117       -21.8840    28.7230   -24.0520 h1         9 MOL       0.042700
    209 H118       -22.9470    30.6580   -25.9910 h1         9 MOL       0.042700
    210 H119       -23.7500    30.0120   -24.5070 h1         9 MOL       0.042700
    211 H120       -25.3410    28.8380   -25.8730 h1         9 MOL       0.042200
    212 H121       -24.5500    29.4850   -27.3600 h1         9 MOL       0.042200
    213 H122       -27.2480    30.0580   -26.3300 h1         9 MOL       0.033700
    214 H123       -26.4840    30.7300   -27.8240 h1         9 MOL       0.033700
    215 H124       -26.4420    32.9530   -26.7830 h1         9 MOL       0.059200
    216 H125       -27.1920    32.2700   -25.3010 h1         9 MOL       0.059200
    217 H126       -28.3130    32.2510   -27.9500 ho         9 MOL       0.398000
    218 H127       -18.0600   -16.1250   -21.4280 ho         9 MOL       0.398000
    219 H128        25.2450    -2.9380   -17.3210 ho         9 MOL       0.398000
@<TRIPOS>BOND
     1     1    10 1   
     2     1    13 1   
     3     1    94 1   
     4     2    11 1   
     5     2    12 1   
     6     2    95 1   
     7     3    14 1   
     8     3    15 1   
     9     3    96 1   
    10     4     5 ar  
    11     4     9 ar  
    12     4    15 1   
    13     5     6 ar  
    14     5    91 1   
    15     6     7 ar  
    16     6    11 1   
    17     7     8 ar  
    18     7    92 1   
    19     8     9 ar  
    20     8    10 1   
    21     9    93 1   
    22    10    73 2   
    23    11    74 2   
    24    12    35 1   
    25    12   137 1   
    26    12   138 1   
    27    13    54 1   
    28    13   177 1   
    29    13   178 1   
    30    14    16 1   
    31    14    97 1   
    32    14    98 1   
    33    15    75 2   
    34    16    17 1   
    35    16    99 1   
    36    16   100 1   
    37    17    18 1   
    38    17   101 1   
    39    17   102 1   
    40    18    19 1   
    41    18   103 1   
    42    18   104 1   
    43    19    20 1   
    44    19   105 1   
    45    19   106 1   
    46    20    21 1   
    47    20   107 1   
    48    20   108 1   
    49    21    22 1   
    50    21   109 1   
    51    21   110 1   
    52    22    23 1   
    53    22   111 1   
    54    22   112 1   
    55    23    24 1   
    56    23   113 1   
    57    23   114 1   
    58    24    25 1   
    59    24   115 1   
    60    24   116 1   
    61    25    26 1   
    62    25   117 1   
    63    25   118 1   
    64    26    76 1   
    65    26   119 1   
    66    26   120 1   
    67    27    28 1   
    68    27    76 1   
    69    27   121 1   
    70    27   122 1   
    71    28    77 1   
    72    28   123 1   
    73    28   124 1   
    74    29    30 1   
    75    29    77 1   
    76    29   125 1   
    77    29   126 1   
    78    30    78 1   
    79    30   127 1   
    80    30   128 1   
    81    31    32 1   
    82    31    78 1   
    83    31   129 1   
    84    31   130 1   
    85    32    79 1   
    86    32   131 1   
    87    32   132 1   
    88    33    34 1   
    89    33    79 1   
    90    33   133 1   
    91    33   134 1   
    92    34    80 1   
    93    34   135 1   
    94    34   136 1   
    95    35    36 1   
    96    35   139 1   
    97    35   140 1   
    98    36    37 1   
    99    36   141 1   
   100    36   142 1   
   101    37    38 1   
   102    37   143 1   
   103    37   144 1   
   104    38    39 1   
   105    38   145 1   
   106    38   146 1   
   107    39    40 1   
   108    39   147 1   
   109    39   148 1   
   110    40    41 1   
   111    40   149 1   
   112    40   150 1   
   113    41    42 1   
   114    41   151 1   
   115    41   152 1   
   116    42    43 1   
   117    42   153 1   
   118    42   154 1   
   119    43    44 1   
   120    43   155 1   
   121    43   156 1   
   122    44    45 1   
   123    44   157 1   
   124    44   158 1   
   125    45    81 1   
   126    45   159 1   
   127    45   160 1   
   128    46    47 1   
   129    46    81 1   
   130    46   161 1   
   131    46   162 1   
   132    47    82 1   
   133    47   163 1   
   134    47   164 1   
   135    48    49 1   
   136    48    82 1   
   137    48   165 1   
   138    48   166 1   
   139    49    83 1   
   140    49   167 1   
   141    49   168 1   
   142    50    51 1   
   143    50    83 1   
   144    50   169 1   
   145    50   170 1   
   146    51    84 1   
   147    51   171 1   
   148    51   172 1   
   149    52    53 1   
   150    52    84 1   
   151    52   173 1   
   152    52   174 1   
   153    53    85 1   
   154    53   175 1   
   155    53   176 1   
   156    54    55 1   
   157    54   179 1   
   158    54   180 1   
   159    55    56 1   
   160    55   181 1   
   161    55   182 1   
   162    56    57 1   
   163    56   183 1   
   164    56   184 1   
   165    57    58 1   
   166    57   185 1   
   167    57   186 1   
   168    58    59 1   
   169    58   187 1   
   170    58   188 1   
   171    59    60 1   
   172    59   189 1   
   173    59   190 1   
   174    60    61 1   
   175    60   191 1   
   176    60   192 1   
   177    61    62 1   
   178    61   193 1   
   179    61   194 1   
   180    62    63 1   
   181    62   195 1   
   182    62   196 1   
   183    63    64 1   
   184    63   197 1   
   185    63   198 1   
   186    64    86 1   
   187    64   199 1   
   188    64   200 1   
   189    65    66 1   
   190    65    86 1   
   191    65   201 1   
   192    65   202 1   
   193    66    87 1   
   194    66   203 1   
   195    66   204 1   
   196    67    68 1   
   197    67    87 1   
   198    67   205 1   
   199    67   206 1   
   200    68    88 1   
   201    68   207 1   
   202    68   208 1   
   203    69    70 1   
   204    69    88 1   
   205    69   209 1   
   206    69   210 1   
   207    70    89 1   
   208    70   211 1   
   209    70   212 1   
   210    71    72 1   
   211    71    89 1   
   212    71   213 1   
   213    71   214 1   
   214    72    90 1   
   215    72   215 1   
   216    72   216 1   
   217    80   219 1   
   218    85   218 1   
   219    90   217 1   
@<TRIPOS>SUBSTRUCTURE
     1 MOL         1 TEMP              0 ****  ****    0 ROOT
